New Loadshape.GSO_36.0352_-79.9153_55_135 npts= 35040 interval=0.25 mult = (file=../../../../profiles/GSO_36.0352_-79.9153_55_135.csv)

New Loadshape.GSO_36.0352_-79.9153_55_270 npts= 35040 interval=0.25 mult = (file=../../../../profiles/GSO_36.0352_-79.9153_55_270.csv)

New Loadshape.GSO_36.0352_-79.9153_25_270 npts= 35040 interval=0.25 mult = (file=../../../../profiles/GSO_36.0352_-79.9153_25_270.csv)

New Loadshape.GSO_36.0352_-79.9153_15_90 npts= 35040 interval=0.25 mult = (file=../../../../profiles/GSO_36.0352_-79.9153_15_90.csv)

New Loadshape.GSO_36.0352_-79.9153_25_225 npts= 35040 interval=0.25 mult = (file=../../../../profiles/GSO_36.0352_-79.9153_25_225.csv)

New Loadshape.GSO_36.0352_-79.9153_35_90 npts= 35040 interval=0.25 mult = (file=../../../../profiles/GSO_36.0352_-79.9153_35_90.csv)

New Loadshape.GSO_36.0352_-79.9153_25_135 npts= 35040 interval=0.25 mult = (file=../../../../profiles/GSO_36.0352_-79.9153_25_135.csv)

New Loadshape.GSO_36.0352_-79.9153_25_180 npts= 35040 interval=0.25 mult = (file=../../../../profiles/GSO_36.0352_-79.9153_25_180.csv)

New Loadshape.GSO_36.0352_-79.9153_15_180 npts= 35040 interval=0.25 mult = (file=../../../../profiles/GSO_36.0352_-79.9153_15_180.csv)

New Loadshape.GSO_36.0352_-79.9153_35_225 npts= 35040 interval=0.25 mult = (file=../../../../profiles/GSO_36.0352_-79.9153_35_225.csv)

New Loadshape.GSO_36.0721_-79.9153_15_90 npts= 35040 interval=0.25 mult = (file=../../../../profiles/GSO_36.0721_-79.9153_15_90.csv)

New Loadshape.GSO_36.0352_-79.9153_35_180 npts= 35040 interval=0.25 mult = (file=../../../../profiles/GSO_36.0352_-79.9153_35_180.csv)

New Loadshape.GSO_36.0721_-79.9153_15_270 npts= 35040 interval=0.25 mult = (file=../../../../profiles/GSO_36.0721_-79.9153_15_270.csv)

New Loadshape.GSO_36.0352_-79.9153_35_135 npts= 35040 interval=0.25 mult = (file=../../../../profiles/GSO_36.0352_-79.9153_35_135.csv)

New Loadshape.GSO_36.0352_-79.9153_45_135 npts= 35040 interval=0.25 mult = (file=../../../../profiles/GSO_36.0352_-79.9153_45_135.csv)

New Loadshape.GSO_36.0721_-79.9153_15_180 npts= 35040 interval=0.25 mult = (file=../../../../profiles/GSO_36.0721_-79.9153_15_180.csv)

New Loadshape.GSO_36.0352_-79.9153_15_135 npts= 35040 interval=0.25 mult = (file=../../../../profiles/GSO_36.0352_-79.9153_15_135.csv)

New Loadshape.GSO_36.0352_-79.9153_35_270 npts= 35040 interval=0.25 mult = (file=../../../../profiles/GSO_36.0352_-79.9153_35_270.csv)

New Loadshape.GSO_36.0352_-79.9153_15_225 npts= 35040 interval=0.25 mult = (file=../../../../profiles/GSO_36.0352_-79.9153_15_225.csv)

New Loadshape.GSO_36.0352_-79.9153_45_180 npts= 35040 interval=0.25 mult = (file=../../../../profiles/GSO_36.0352_-79.9153_45_180.csv)

New Loadshape.GSO_36.0352_-79.9153_15_270 npts= 35040 interval=0.25 mult = (file=../../../../profiles/GSO_36.0352_-79.9153_15_270.csv)

New Loadshape.GSO_36.0721_-79.9153_25_180 npts= 35040 interval=0.25 mult = (file=../../../../profiles/GSO_36.0721_-79.9153_25_180.csv)

New Loadshape.GSO_36.0352_-79.9153_45_225 npts= 35040 interval=0.25 mult = (file=../../../../profiles/GSO_36.0352_-79.9153_45_225.csv)

New Loadshape.GSO_36.0721_-79.9153_25_225 npts= 35040 interval=0.25 mult = (file=../../../../profiles/GSO_36.0721_-79.9153_25_225.csv)

New Loadshape.GSO_36.0721_-79.9153_25_270 npts= 35040 interval=0.25 mult = (file=../../../../profiles/GSO_36.0721_-79.9153_25_270.csv)

New Loadshape.GSO_36.0352_-79.9153_25_90 npts= 35040 interval=0.25 mult = (file=../../../../profiles/GSO_36.0352_-79.9153_25_90.csv)

New Loadshape.GSO_36.0721_-79.9153_15_225 npts= 35040 interval=0.25 mult = (file=../../../../profiles/GSO_36.0721_-79.9153_15_225.csv)

New Loadshape.GSO_36.0352_-79.9153_55_225 npts= 35040 interval=0.25 mult = (file=../../../../profiles/GSO_36.0352_-79.9153_55_225.csv)

New Loadshape.GSO_36.0721_-79.9153_25_135 npts= 35040 interval=0.25 mult = (file=../../../../profiles/GSO_36.0721_-79.9153_25_135.csv)

New Loadshape.GSO_36.0352_-79.9153_45_270 npts= 35040 interval=0.25 mult = (file=../../../../profiles/GSO_36.0352_-79.9153_45_270.csv)

New Loadshape.GSO_36.0721_-79.9153_35_180 npts= 35040 interval=0.25 mult = (file=../../../../profiles/GSO_36.0721_-79.9153_35_180.csv)

New Loadshape.GSO_36.0352_-79.9153_55_180 npts= 35040 interval=0.25 mult = (file=../../../../profiles/GSO_36.0352_-79.9153_55_180.csv)

New Loadshape.GSO_36.0352_-79.9153_45_90 npts= 35040 interval=0.25 mult = (file=../../../../profiles/GSO_36.0352_-79.9153_45_90.csv)

New Loadshape.GSO_36.0721_-79.9153_45_180 npts= 35040 interval=0.25 mult = (file=../../../../profiles/GSO_36.0721_-79.9153_45_180.csv)

New Loadshape.GSO_36.0721_-79.9153_35_90 npts= 35040 interval=0.25 mult = (file=../../../../profiles/GSO_36.0721_-79.9153_35_90.csv)

New Loadshape.GSO_36.0721_-79.9153_25_90 npts= 35040 interval=0.25 mult = (file=../../../../profiles/GSO_36.0721_-79.9153_25_90.csv)

New Loadshape.GSO_36.0721_-79.9153_15_135 npts= 35040 interval=0.25 mult = (file=../../../../profiles/GSO_36.0721_-79.9153_15_135.csv)

New Loadshape.GSO_36.0721_-79.9153_35_135 npts= 35040 interval=0.25 mult = (file=../../../../profiles/GSO_36.0721_-79.9153_35_135.csv)

New Loadshape.GSO_36.0721_-79.9153_55_225 npts= 35040 interval=0.25 mult = (file=../../../../profiles/GSO_36.0721_-79.9153_55_225.csv)

New Loadshape.GSO_36.0721_-79.9153_55_135 npts= 35040 interval=0.25 mult = (file=../../../../profiles/GSO_36.0721_-79.9153_55_135.csv)

New Loadshape.GSO_36.0721_-79.9153_35_270 npts= 35040 interval=0.25 mult = (file=../../../../profiles/GSO_36.0721_-79.9153_35_270.csv)

New Loadshape.GSO_36.0721_-79.9153_45_225 npts= 35040 interval=0.25 mult = (file=../../../../profiles/GSO_36.0721_-79.9153_45_225.csv)

New Loadshape.GSO_36.0721_-79.9153_35_225 npts= 35040 interval=0.25 mult = (file=../../../../profiles/GSO_36.0721_-79.9153_35_225.csv)

New Loadshape.GSO_36.0721_-79.9153_45_135 npts= 35040 interval=0.25 mult = (file=../../../../profiles/GSO_36.0721_-79.9153_45_135.csv)

New Loadshape.GSO_36.0721_-79.9153_45_90 npts= 35040 interval=0.25 mult = (file=../../../../profiles/GSO_36.0721_-79.9153_45_90.csv)

New Loadshape.GSO_36.0721_-79.9153_45_270 npts= 35040 interval=0.25 mult = (file=../../../../profiles/GSO_36.0721_-79.9153_45_270.csv)

New Loadshape.res_kw_245_pu npts= 35040 interval=0.25 mult = (file=../../../../profiles/res_kw_245_pu.csv) qmult = (file=../../../../profiles/res_kvar_245_pu.csv)

New Loadshape.res_kw_1276_pu npts= 35040 interval=0.25 mult = (file=../../../../profiles/res_kw_1276_pu.csv) qmult = (file=../../../../profiles/res_kvar_1276_pu.csv)

New Loadshape.res_kw_421_pu npts= 35040 interval=0.25 mult = (file=../../../../profiles/res_kw_421_pu.csv) qmult = (file=../../../../profiles/res_kvar_421_pu.csv)

New Loadshape.res_kw_504_pu npts= 35040 interval=0.25 mult = (file=../../../../profiles/res_kw_504_pu.csv) qmult = (file=../../../../profiles/res_kvar_504_pu.csv)

New Loadshape.res_kw_1153_pu npts= 35040 interval=0.25 mult = (file=../../../../profiles/res_kw_1153_pu.csv) qmult = (file=../../../../profiles/res_kvar_1153_pu.csv)

New Loadshape.res_kw_1258_pu npts= 35040 interval=0.25 mult = (file=../../../../profiles/res_kw_1258_pu.csv) qmult = (file=../../../../profiles/res_kvar_1258_pu.csv)

New Loadshape.res_kw_280_pu npts= 35040 interval=0.25 mult = (file=../../../../profiles/res_kw_280_pu.csv) qmult = (file=../../../../profiles/res_kvar_280_pu.csv)

New Loadshape.res_kw_384_pu npts= 35040 interval=0.25 mult = (file=../../../../profiles/res_kw_384_pu.csv) qmult = (file=../../../../profiles/res_kvar_384_pu.csv)

New Loadshape.res_kw_695_pu npts= 35040 interval=0.25 mult = (file=../../../../profiles/res_kw_695_pu.csv) qmult = (file=../../../../profiles/res_kvar_695_pu.csv)

New Loadshape.res_kw_1205_pu npts= 35040 interval=0.25 mult = (file=../../../../profiles/res_kw_1205_pu.csv) qmult = (file=../../../../profiles/res_kvar_1205_pu.csv)

New Loadshape.res_kw_314_pu npts= 35040 interval=0.25 mult = (file=../../../../profiles/res_kw_314_pu.csv) qmult = (file=../../../../profiles/res_kvar_314_pu.csv)

New Loadshape.res_kw_1112_pu npts= 35040 interval=0.25 mult = (file=../../../../profiles/res_kw_1112_pu.csv) qmult = (file=../../../../profiles/res_kvar_1112_pu.csv)

New Loadshape.res_kw_517_pu npts= 35040 interval=0.25 mult = (file=../../../../profiles/res_kw_517_pu.csv) qmult = (file=../../../../profiles/res_kvar_517_pu.csv)

New Loadshape.res_kw_454_pu npts= 35040 interval=0.25 mult = (file=../../../../profiles/res_kw_454_pu.csv) qmult = (file=../../../../profiles/res_kvar_454_pu.csv)

New Loadshape.res_kw_1283_pu npts= 35040 interval=0.25 mult = (file=../../../../profiles/res_kw_1283_pu.csv) qmult = (file=../../../../profiles/res_kvar_1283_pu.csv)

New Loadshape.res_kw_4_pu npts= 35040 interval=0.25 mult = (file=../../../../profiles/res_kw_4_pu.csv) qmult = (file=../../../../profiles/res_kvar_4_pu.csv)

New Loadshape.res_kw_822_pu npts= 35040 interval=0.25 mult = (file=../../../../profiles/res_kw_822_pu.csv) qmult = (file=../../../../profiles/res_kvar_822_pu.csv)

New Loadshape.res_kw_560_pu npts= 35040 interval=0.25 mult = (file=../../../../profiles/res_kw_560_pu.csv) qmult = (file=../../../../profiles/res_kvar_560_pu.csv)

New Loadshape.res_kw_411_pu npts= 35040 interval=0.25 mult = (file=../../../../profiles/res_kw_411_pu.csv) qmult = (file=../../../../profiles/res_kvar_411_pu.csv)

New Loadshape.res_kw_263_pu npts= 35040 interval=0.25 mult = (file=../../../../profiles/res_kw_263_pu.csv) qmult = (file=../../../../profiles/res_kvar_263_pu.csv)

New Loadshape.res_kw_842_pu npts= 35040 interval=0.25 mult = (file=../../../../profiles/res_kw_842_pu.csv) qmult = (file=../../../../profiles/res_kvar_842_pu.csv)

New Loadshape.res_kw_1023_pu npts= 35040 interval=0.25 mult = (file=../../../../profiles/res_kw_1023_pu.csv) qmult = (file=../../../../profiles/res_kvar_1023_pu.csv)

New Loadshape.res_kw_1036_pu npts= 35040 interval=0.25 mult = (file=../../../../profiles/res_kw_1036_pu.csv) qmult = (file=../../../../profiles/res_kvar_1036_pu.csv)

New Loadshape.res_kw_1069_pu npts= 35040 interval=0.25 mult = (file=../../../../profiles/res_kw_1069_pu.csv) qmult = (file=../../../../profiles/res_kvar_1069_pu.csv)

New Loadshape.res_kw_1228_pu npts= 35040 interval=0.25 mult = (file=../../../../profiles/res_kw_1228_pu.csv) qmult = (file=../../../../profiles/res_kvar_1228_pu.csv)

New Loadshape.res_kw_523_pu npts= 35040 interval=0.25 mult = (file=../../../../profiles/res_kw_523_pu.csv) qmult = (file=../../../../profiles/res_kvar_523_pu.csv)

New Loadshape.res_kw_24_pu npts= 35040 interval=0.25 mult = (file=../../../../profiles/res_kw_24_pu.csv) qmult = (file=../../../../profiles/res_kvar_24_pu.csv)

New Loadshape.res_kw_1037_pu npts= 35040 interval=0.25 mult = (file=../../../../profiles/res_kw_1037_pu.csv) qmult = (file=../../../../profiles/res_kvar_1037_pu.csv)

New Loadshape.res_kw_1186_pu npts= 35040 interval=0.25 mult = (file=../../../../profiles/res_kw_1186_pu.csv) qmult = (file=../../../../profiles/res_kvar_1186_pu.csv)

New Loadshape.res_kw_33_pu npts= 35040 interval=0.25 mult = (file=../../../../profiles/res_kw_33_pu.csv) qmult = (file=../../../../profiles/res_kvar_33_pu.csv)

New Loadshape.res_kw_307_pu npts= 35040 interval=0.25 mult = (file=../../../../profiles/res_kw_307_pu.csv) qmult = (file=../../../../profiles/res_kvar_307_pu.csv)

New Loadshape.res_kw_512_pu npts= 35040 interval=0.25 mult = (file=../../../../profiles/res_kw_512_pu.csv) qmult = (file=../../../../profiles/res_kvar_512_pu.csv)

New Loadshape.res_kw_1273_pu npts= 35040 interval=0.25 mult = (file=../../../../profiles/res_kw_1273_pu.csv) qmult = (file=../../../../profiles/res_kvar_1273_pu.csv)

New Loadshape.res_kw_93_pu npts= 35040 interval=0.25 mult = (file=../../../../profiles/res_kw_93_pu.csv) qmult = (file=../../../../profiles/res_kvar_93_pu.csv)

New Loadshape.res_kw_407_pu npts= 35040 interval=0.25 mult = (file=../../../../profiles/res_kw_407_pu.csv) qmult = (file=../../../../profiles/res_kvar_407_pu.csv)

New Loadshape.res_kw_207_pu npts= 35040 interval=0.25 mult = (file=../../../../profiles/res_kw_207_pu.csv) qmult = (file=../../../../profiles/res_kvar_207_pu.csv)

New Loadshape.res_kw_825_pu npts= 35040 interval=0.25 mult = (file=../../../../profiles/res_kw_825_pu.csv) qmult = (file=../../../../profiles/res_kvar_825_pu.csv)

New Loadshape.res_kw_772_pu npts= 35040 interval=0.25 mult = (file=../../../../profiles/res_kw_772_pu.csv) qmult = (file=../../../../profiles/res_kvar_772_pu.csv)

New Loadshape.res_kw_462_pu npts= 35040 interval=0.25 mult = (file=../../../../profiles/res_kw_462_pu.csv) qmult = (file=../../../../profiles/res_kvar_462_pu.csv)

New Loadshape.res_kw_597_pu npts= 35040 interval=0.25 mult = (file=../../../../profiles/res_kw_597_pu.csv) qmult = (file=../../../../profiles/res_kvar_597_pu.csv)

New Loadshape.res_kw_199_pu npts= 35040 interval=0.25 mult = (file=../../../../profiles/res_kw_199_pu.csv) qmult = (file=../../../../profiles/res_kvar_199_pu.csv)

New Loadshape.res_kw_564_pu npts= 35040 interval=0.25 mult = (file=../../../../profiles/res_kw_564_pu.csv) qmult = (file=../../../../profiles/res_kvar_564_pu.csv)

New Loadshape.res_kw_1042_pu npts= 35040 interval=0.25 mult = (file=../../../../profiles/res_kw_1042_pu.csv) qmult = (file=../../../../profiles/res_kvar_1042_pu.csv)

New Loadshape.res_kw_1223_pu npts= 35040 interval=0.25 mult = (file=../../../../profiles/res_kw_1223_pu.csv) qmult = (file=../../../../profiles/res_kvar_1223_pu.csv)

New Loadshape.res_kw_452_pu npts= 35040 interval=0.25 mult = (file=../../../../profiles/res_kw_452_pu.csv) qmult = (file=../../../../profiles/res_kvar_452_pu.csv)

New Loadshape.res_kw_121_pu npts= 35040 interval=0.25 mult = (file=../../../../profiles/res_kw_121_pu.csv) qmult = (file=../../../../profiles/res_kvar_121_pu.csv)

New Loadshape.res_kw_30_pu npts= 35040 interval=0.25 mult = (file=../../../../profiles/res_kw_30_pu.csv) qmult = (file=../../../../profiles/res_kvar_30_pu.csv)

New Loadshape.res_kw_621_pu npts= 35040 interval=0.25 mult = (file=../../../../profiles/res_kw_621_pu.csv) qmult = (file=../../../../profiles/res_kvar_621_pu.csv)

New Loadshape.res_kw_1149_pu npts= 35040 interval=0.25 mult = (file=../../../../profiles/res_kw_1149_pu.csv) qmult = (file=../../../../profiles/res_kvar_1149_pu.csv)

New Loadshape.res_kw_599_pu npts= 35040 interval=0.25 mult = (file=../../../../profiles/res_kw_599_pu.csv) qmult = (file=../../../../profiles/res_kvar_599_pu.csv)

New Loadshape.res_kw_1041_pu npts= 35040 interval=0.25 mult = (file=../../../../profiles/res_kw_1041_pu.csv) qmult = (file=../../../../profiles/res_kvar_1041_pu.csv)

New Loadshape.res_kw_141_pu npts= 35040 interval=0.25 mult = (file=../../../../profiles/res_kw_141_pu.csv) qmult = (file=../../../../profiles/res_kvar_141_pu.csv)

New Loadshape.res_kw_292_pu npts= 35040 interval=0.25 mult = (file=../../../../profiles/res_kw_292_pu.csv) qmult = (file=../../../../profiles/res_kvar_292_pu.csv)

New Loadshape.res_kw_39_pu npts= 35040 interval=0.25 mult = (file=../../../../profiles/res_kw_39_pu.csv) qmult = (file=../../../../profiles/res_kvar_39_pu.csv)

New Loadshape.res_kw_461_pu npts= 35040 interval=0.25 mult = (file=../../../../profiles/res_kw_461_pu.csv) qmult = (file=../../../../profiles/res_kvar_461_pu.csv)

New Loadshape.res_kw_1105_pu npts= 35040 interval=0.25 mult = (file=../../../../profiles/res_kw_1105_pu.csv) qmult = (file=../../../../profiles/res_kvar_1105_pu.csv)

New Loadshape.res_kw_645_pu npts= 35040 interval=0.25 mult = (file=../../../../profiles/res_kw_645_pu.csv) qmult = (file=../../../../profiles/res_kvar_645_pu.csv)

New Loadshape.res_kw_715_pu npts= 35040 interval=0.25 mult = (file=../../../../profiles/res_kw_715_pu.csv) qmult = (file=../../../../profiles/res_kvar_715_pu.csv)

New Loadshape.res_kw_460_pu npts= 35040 interval=0.25 mult = (file=../../../../profiles/res_kw_460_pu.csv) qmult = (file=../../../../profiles/res_kvar_460_pu.csv)

New Loadshape.res_kw_681_pu npts= 35040 interval=0.25 mult = (file=../../../../profiles/res_kw_681_pu.csv) qmult = (file=../../../../profiles/res_kvar_681_pu.csv)

New Loadshape.res_kw_906_pu npts= 35040 interval=0.25 mult = (file=../../../../profiles/res_kw_906_pu.csv) qmult = (file=../../../../profiles/res_kvar_906_pu.csv)

New Loadshape.res_kw_332_pu npts= 35040 interval=0.25 mult = (file=../../../../profiles/res_kw_332_pu.csv) qmult = (file=../../../../profiles/res_kvar_332_pu.csv)

New Loadshape.res_kw_1255_pu npts= 35040 interval=0.25 mult = (file=../../../../profiles/res_kw_1255_pu.csv) qmult = (file=../../../../profiles/res_kvar_1255_pu.csv)

New Loadshape.res_kw_931_pu npts= 35040 interval=0.25 mult = (file=../../../../profiles/res_kw_931_pu.csv) qmult = (file=../../../../profiles/res_kvar_931_pu.csv)

New Loadshape.res_kw_1157_pu npts= 35040 interval=0.25 mult = (file=../../../../profiles/res_kw_1157_pu.csv) qmult = (file=../../../../profiles/res_kvar_1157_pu.csv)

New Loadshape.res_kw_780_pu npts= 35040 interval=0.25 mult = (file=../../../../profiles/res_kw_780_pu.csv) qmult = (file=../../../../profiles/res_kvar_780_pu.csv)

New Loadshape.res_kw_97_pu npts= 35040 interval=0.25 mult = (file=../../../../profiles/res_kw_97_pu.csv) qmult = (file=../../../../profiles/res_kvar_97_pu.csv)

New Loadshape.res_kw_532_pu npts= 35040 interval=0.25 mult = (file=../../../../profiles/res_kw_532_pu.csv) qmult = (file=../../../../profiles/res_kvar_532_pu.csv)

New Loadshape.res_kw_1083_pu npts= 35040 interval=0.25 mult = (file=../../../../profiles/res_kw_1083_pu.csv) qmult = (file=../../../../profiles/res_kvar_1083_pu.csv)

New Loadshape.res_kw_829_pu npts= 35040 interval=0.25 mult = (file=../../../../profiles/res_kw_829_pu.csv) qmult = (file=../../../../profiles/res_kvar_829_pu.csv)

New Loadshape.res_kw_205_pu npts= 35040 interval=0.25 mult = (file=../../../../profiles/res_kw_205_pu.csv) qmult = (file=../../../../profiles/res_kvar_205_pu.csv)

New Loadshape.res_kw_1142_pu npts= 35040 interval=0.25 mult = (file=../../../../profiles/res_kw_1142_pu.csv) qmult = (file=../../../../profiles/res_kvar_1142_pu.csv)

New Loadshape.res_kw_887_pu npts= 35040 interval=0.25 mult = (file=../../../../profiles/res_kw_887_pu.csv) qmult = (file=../../../../profiles/res_kvar_887_pu.csv)

New Loadshape.res_kw_675_pu npts= 35040 interval=0.25 mult = (file=../../../../profiles/res_kw_675_pu.csv) qmult = (file=../../../../profiles/res_kvar_675_pu.csv)

New Loadshape.res_kw_211_pu npts= 35040 interval=0.25 mult = (file=../../../../profiles/res_kw_211_pu.csv) qmult = (file=../../../../profiles/res_kvar_211_pu.csv)

New Loadshape.res_kw_1270_pu npts= 35040 interval=0.25 mult = (file=../../../../profiles/res_kw_1270_pu.csv) qmult = (file=../../../../profiles/res_kvar_1270_pu.csv)

New Loadshape.res_kw_1248_pu npts= 35040 interval=0.25 mult = (file=../../../../profiles/res_kw_1248_pu.csv) qmult = (file=../../../../profiles/res_kvar_1248_pu.csv)

New Loadshape.res_kw_1267_pu npts= 35040 interval=0.25 mult = (file=../../../../profiles/res_kw_1267_pu.csv) qmult = (file=../../../../profiles/res_kvar_1267_pu.csv)

New Loadshape.res_kw_1190_pu npts= 35040 interval=0.25 mult = (file=../../../../profiles/res_kw_1190_pu.csv) qmult = (file=../../../../profiles/res_kvar_1190_pu.csv)

New Loadshape.res_kw_409_pu npts= 35040 interval=0.25 mult = (file=../../../../profiles/res_kw_409_pu.csv) qmult = (file=../../../../profiles/res_kvar_409_pu.csv)

New Loadshape.res_kw_123_pu npts= 35040 interval=0.25 mult = (file=../../../../profiles/res_kw_123_pu.csv) qmult = (file=../../../../profiles/res_kvar_123_pu.csv)

New Loadshape.res_kw_128_pu npts= 35040 interval=0.25 mult = (file=../../../../profiles/res_kw_128_pu.csv) qmult = (file=../../../../profiles/res_kvar_128_pu.csv)

New Loadshape.res_kw_549_pu npts= 35040 interval=0.25 mult = (file=../../../../profiles/res_kw_549_pu.csv) qmult = (file=../../../../profiles/res_kvar_549_pu.csv)

New Loadshape.res_kw_861_pu npts= 35040 interval=0.25 mult = (file=../../../../profiles/res_kw_861_pu.csv) qmult = (file=../../../../profiles/res_kvar_861_pu.csv)

New Loadshape.res_kw_1094_pu npts= 35040 interval=0.25 mult = (file=../../../../profiles/res_kw_1094_pu.csv) qmult = (file=../../../../profiles/res_kvar_1094_pu.csv)

New Loadshape.res_kw_686_pu npts= 35040 interval=0.25 mult = (file=../../../../profiles/res_kw_686_pu.csv) qmult = (file=../../../../profiles/res_kvar_686_pu.csv)

New Loadshape.res_kw_863_pu npts= 35040 interval=0.25 mult = (file=../../../../profiles/res_kw_863_pu.csv) qmult = (file=../../../../profiles/res_kvar_863_pu.csv)

New Loadshape.res_kw_932_pu npts= 35040 interval=0.25 mult = (file=../../../../profiles/res_kw_932_pu.csv) qmult = (file=../../../../profiles/res_kvar_932_pu.csv)

New Loadshape.res_kw_598_pu npts= 35040 interval=0.25 mult = (file=../../../../profiles/res_kw_598_pu.csv) qmult = (file=../../../../profiles/res_kvar_598_pu.csv)

New Loadshape.res_kw_1009_pu npts= 35040 interval=0.25 mult = (file=../../../../profiles/res_kw_1009_pu.csv) qmult = (file=../../../../profiles/res_kvar_1009_pu.csv)

New Loadshape.res_kw_76_pu npts= 35040 interval=0.25 mult = (file=../../../../profiles/res_kw_76_pu.csv) qmult = (file=../../../../profiles/res_kvar_76_pu.csv)

New Loadshape.res_kw_239_pu npts= 35040 interval=0.25 mult = (file=../../../../profiles/res_kw_239_pu.csv) qmult = (file=../../../../profiles/res_kvar_239_pu.csv)

New Loadshape.res_kw_1089_pu npts= 35040 interval=0.25 mult = (file=../../../../profiles/res_kw_1089_pu.csv) qmult = (file=../../../../profiles/res_kvar_1089_pu.csv)

New Loadshape.res_kw_1256_pu npts= 35040 interval=0.25 mult = (file=../../../../profiles/res_kw_1256_pu.csv) qmult = (file=../../../../profiles/res_kvar_1256_pu.csv)

New Loadshape.res_kw_654_pu npts= 35040 interval=0.25 mult = (file=../../../../profiles/res_kw_654_pu.csv) qmult = (file=../../../../profiles/res_kvar_654_pu.csv)

New Loadshape.res_kw_760_pu npts= 35040 interval=0.25 mult = (file=../../../../profiles/res_kw_760_pu.csv) qmult = (file=../../../../profiles/res_kvar_760_pu.csv)

New Loadshape.res_kw_707_pu npts= 35040 interval=0.25 mult = (file=../../../../profiles/res_kw_707_pu.csv) qmult = (file=../../../../profiles/res_kvar_707_pu.csv)

New Loadshape.res_kw_182_pu npts= 35040 interval=0.25 mult = (file=../../../../profiles/res_kw_182_pu.csv) qmult = (file=../../../../profiles/res_kvar_182_pu.csv)

New Loadshape.res_kw_231_pu npts= 35040 interval=0.25 mult = (file=../../../../profiles/res_kw_231_pu.csv) qmult = (file=../../../../profiles/res_kvar_231_pu.csv)

New Loadshape.res_kw_807_pu npts= 35040 interval=0.25 mult = (file=../../../../profiles/res_kw_807_pu.csv) qmult = (file=../../../../profiles/res_kvar_807_pu.csv)

New Loadshape.res_kw_470_pu npts= 35040 interval=0.25 mult = (file=../../../../profiles/res_kw_470_pu.csv) qmult = (file=../../../../profiles/res_kvar_470_pu.csv)

New Loadshape.res_kw_684_pu npts= 35040 interval=0.25 mult = (file=../../../../profiles/res_kw_684_pu.csv) qmult = (file=../../../../profiles/res_kvar_684_pu.csv)

New Loadshape.res_kw_664_pu npts= 35040 interval=0.25 mult = (file=../../../../profiles/res_kw_664_pu.csv) qmult = (file=../../../../profiles/res_kvar_664_pu.csv)

New Loadshape.res_kw_933_pu npts= 35040 interval=0.25 mult = (file=../../../../profiles/res_kw_933_pu.csv) qmult = (file=../../../../profiles/res_kvar_933_pu.csv)

New Loadshape.res_kw_968_pu npts= 35040 interval=0.25 mult = (file=../../../../profiles/res_kw_968_pu.csv) qmult = (file=../../../../profiles/res_kvar_968_pu.csv)

New Loadshape.res_kw_455_pu npts= 35040 interval=0.25 mult = (file=../../../../profiles/res_kw_455_pu.csv) qmult = (file=../../../../profiles/res_kvar_455_pu.csv)

New Loadshape.res_kw_1067_pu npts= 35040 interval=0.25 mult = (file=../../../../profiles/res_kw_1067_pu.csv) qmult = (file=../../../../profiles/res_kvar_1067_pu.csv)

New Loadshape.res_kw_220_pu npts= 35040 interval=0.25 mult = (file=../../../../profiles/res_kw_220_pu.csv) qmult = (file=../../../../profiles/res_kvar_220_pu.csv)

New Loadshape.res_kw_670_pu npts= 35040 interval=0.25 mult = (file=../../../../profiles/res_kw_670_pu.csv) qmult = (file=../../../../profiles/res_kvar_670_pu.csv)

New Loadshape.res_kw_146_pu npts= 35040 interval=0.25 mult = (file=../../../../profiles/res_kw_146_pu.csv) qmult = (file=../../../../profiles/res_kvar_146_pu.csv)

New Loadshape.res_kw_90_pu npts= 35040 interval=0.25 mult = (file=../../../../profiles/res_kw_90_pu.csv) qmult = (file=../../../../profiles/res_kvar_90_pu.csv)

New Loadshape.res_kw_853_pu npts= 35040 interval=0.25 mult = (file=../../../../profiles/res_kw_853_pu.csv) qmult = (file=../../../../profiles/res_kvar_853_pu.csv)

New Loadshape.res_kw_945_pu npts= 35040 interval=0.25 mult = (file=../../../../profiles/res_kw_945_pu.csv) qmult = (file=../../../../profiles/res_kvar_945_pu.csv)

New Loadshape.res_kw_46_pu npts= 35040 interval=0.25 mult = (file=../../../../profiles/res_kw_46_pu.csv) qmult = (file=../../../../profiles/res_kvar_46_pu.csv)

New Loadshape.res_kw_20_pu npts= 35040 interval=0.25 mult = (file=../../../../profiles/res_kw_20_pu.csv) qmult = (file=../../../../profiles/res_kvar_20_pu.csv)

New Loadshape.res_kw_250_pu npts= 35040 interval=0.25 mult = (file=../../../../profiles/res_kw_250_pu.csv) qmult = (file=../../../../profiles/res_kvar_250_pu.csv)

New Loadshape.res_kw_1115_pu npts= 35040 interval=0.25 mult = (file=../../../../profiles/res_kw_1115_pu.csv) qmult = (file=../../../../profiles/res_kvar_1115_pu.csv)

New Loadshape.res_kw_627_pu npts= 35040 interval=0.25 mult = (file=../../../../profiles/res_kw_627_pu.csv) qmult = (file=../../../../profiles/res_kvar_627_pu.csv)

New Loadshape.res_kw_98_pu npts= 35040 interval=0.25 mult = (file=../../../../profiles/res_kw_98_pu.csv) qmult = (file=../../../../profiles/res_kvar_98_pu.csv)

New Loadshape.res_kw_843_pu npts= 35040 interval=0.25 mult = (file=../../../../profiles/res_kw_843_pu.csv) qmult = (file=../../../../profiles/res_kvar_843_pu.csv)

New Loadshape.res_kw_216_pu npts= 35040 interval=0.25 mult = (file=../../../../profiles/res_kw_216_pu.csv) qmult = (file=../../../../profiles/res_kvar_216_pu.csv)

New Loadshape.res_kw_319_pu npts= 35040 interval=0.25 mult = (file=../../../../profiles/res_kw_319_pu.csv) qmult = (file=../../../../profiles/res_kvar_319_pu.csv)

New Loadshape.res_kw_203_pu npts= 35040 interval=0.25 mult = (file=../../../../profiles/res_kw_203_pu.csv) qmult = (file=../../../../profiles/res_kvar_203_pu.csv)

New Loadshape.res_kw_892_pu npts= 35040 interval=0.25 mult = (file=../../../../profiles/res_kw_892_pu.csv) qmult = (file=../../../../profiles/res_kvar_892_pu.csv)

New Loadshape.res_kw_162_pu npts= 35040 interval=0.25 mult = (file=../../../../profiles/res_kw_162_pu.csv) qmult = (file=../../../../profiles/res_kvar_162_pu.csv)

New Loadshape.res_kw_548_pu npts= 35040 interval=0.25 mult = (file=../../../../profiles/res_kw_548_pu.csv) qmult = (file=../../../../profiles/res_kvar_548_pu.csv)

New Loadshape.res_kw_1160_pu npts= 35040 interval=0.25 mult = (file=../../../../profiles/res_kw_1160_pu.csv) qmult = (file=../../../../profiles/res_kvar_1160_pu.csv)

New Loadshape.res_kw_324_pu npts= 35040 interval=0.25 mult = (file=../../../../profiles/res_kw_324_pu.csv) qmult = (file=../../../../profiles/res_kvar_324_pu.csv)

New Loadshape.res_kw_229_pu npts= 35040 interval=0.25 mult = (file=../../../../profiles/res_kw_229_pu.csv) qmult = (file=../../../../profiles/res_kvar_229_pu.csv)

New Loadshape.res_kw_362_pu npts= 35040 interval=0.25 mult = (file=../../../../profiles/res_kw_362_pu.csv) qmult = (file=../../../../profiles/res_kvar_362_pu.csv)

New Loadshape.res_kw_169_pu npts= 35040 interval=0.25 mult = (file=../../../../profiles/res_kw_169_pu.csv) qmult = (file=../../../../profiles/res_kvar_169_pu.csv)

New Loadshape.res_kw_710_pu npts= 35040 interval=0.25 mult = (file=../../../../profiles/res_kw_710_pu.csv) qmult = (file=../../../../profiles/res_kvar_710_pu.csv)

New Loadshape.res_kw_691_pu npts= 35040 interval=0.25 mult = (file=../../../../profiles/res_kw_691_pu.csv) qmult = (file=../../../../profiles/res_kvar_691_pu.csv)

New Loadshape.res_kw_283_pu npts= 35040 interval=0.25 mult = (file=../../../../profiles/res_kw_283_pu.csv) qmult = (file=../../../../profiles/res_kvar_283_pu.csv)

New Loadshape.res_kw_766_pu npts= 35040 interval=0.25 mult = (file=../../../../profiles/res_kw_766_pu.csv) qmult = (file=../../../../profiles/res_kvar_766_pu.csv)

New Loadshape.res_kw_331_pu npts= 35040 interval=0.25 mult = (file=../../../../profiles/res_kw_331_pu.csv) qmult = (file=../../../../profiles/res_kvar_331_pu.csv)

New Loadshape.res_kw_1189_pu npts= 35040 interval=0.25 mult = (file=../../../../profiles/res_kw_1189_pu.csv) qmult = (file=../../../../profiles/res_kvar_1189_pu.csv)

New Loadshape.res_kw_819_pu npts= 35040 interval=0.25 mult = (file=../../../../profiles/res_kw_819_pu.csv) qmult = (file=../../../../profiles/res_kvar_819_pu.csv)

New Loadshape.res_kw_568_pu npts= 35040 interval=0.25 mult = (file=../../../../profiles/res_kw_568_pu.csv) qmult = (file=../../../../profiles/res_kvar_568_pu.csv)

New Loadshape.res_kw_916_pu npts= 35040 interval=0.25 mult = (file=../../../../profiles/res_kw_916_pu.csv) qmult = (file=../../../../profiles/res_kvar_916_pu.csv)

New Loadshape.res_kw_1252_pu npts= 35040 interval=0.25 mult = (file=../../../../profiles/res_kw_1252_pu.csv) qmult = (file=../../../../profiles/res_kvar_1252_pu.csv)

New Loadshape.res_kw_1213_pu npts= 35040 interval=0.25 mult = (file=../../../../profiles/res_kw_1213_pu.csv) qmult = (file=../../../../profiles/res_kvar_1213_pu.csv)

New Loadshape.res_kw_1187_pu npts= 35040 interval=0.25 mult = (file=../../../../profiles/res_kw_1187_pu.csv) qmult = (file=../../../../profiles/res_kvar_1187_pu.csv)

New Loadshape.res_kw_355_pu npts= 35040 interval=0.25 mult = (file=../../../../profiles/res_kw_355_pu.csv) qmult = (file=../../../../profiles/res_kvar_355_pu.csv)
