New Load.load_p1ulv45_1 conn=wye bus1=p1ulv45.1 kV=0.12 Vminpu=0.8 Vmaxpu=1.2 model=1 kW=4.081735511976485 kvar=0.9882394625849078 Phases=1 yearly=com_kw_14650_pu

New Load.load_p1ulv45_2 conn=wye bus1=p1ulv45.2 kV=0.12 Vminpu=0.8 Vmaxpu=1.2 model=1 kW=4.081735511976485 kvar=0.9882394625849078 Phases=1 yearly=com_kw_14650_pu

New Load.load_p1ulv46_1 conn=wye bus1=p1ulv46.1 kV=0.12 Vminpu=0.8 Vmaxpu=1.2 model=1 kW=5.1496269559453545 kvar=1.5323145223091108 Phases=1 yearly=com_kw_14231_pu

New Load.load_p1ulv46_2 conn=wye bus1=p1ulv46.2 kV=0.12 Vminpu=0.8 Vmaxpu=1.2 model=1 kW=5.1496269559453545 kvar=1.5323145223091108 Phases=1 yearly=com_kw_14231_pu

New Load.load_p1ulv47_1 conn=wye bus1=p1ulv47.1 kV=0.12 Vminpu=0.8 Vmaxpu=1.2 model=1 kW=10.763137052551695 kvar=1.7145459594113484 Phases=1 yearly=res_kw_505_pu

New Load.load_p1ulv47_2 conn=wye bus1=p1ulv47.2 kV=0.12 Vminpu=0.8 Vmaxpu=1.2 model=1 kW=10.763137052551695 kvar=1.7145459594113484 Phases=1 yearly=res_kw_505_pu

New Load.load_p1ulv48 conn=wye bus1=p1ulv48.1.2.3 kV=0.48 Vminpu=0.8 Vmaxpu=1.2 model=1 kW=166.7759234909241 kvar=4.908708701987723 Phases=3 yearly=com_kw_15242_pu

New Load.load_p1ulv49 conn=wye bus1=p1ulv49.1.2.3 kV=0.48 Vminpu=0.8 Vmaxpu=1.2 model=1 kW=90.84575360320908 kvar=22.30335579553028 Phases=3 yearly=com_kw_13363_pu

New Load.load_p1ulv50_1 conn=wye bus1=p1ulv50.1 kV=0.12 Vminpu=0.8 Vmaxpu=1.2 model=1 kW=4.081735511976485 kvar=0.9882394625849078 Phases=1 yearly=com_kw_14650_pu

New Load.load_p1ulv50_2 conn=wye bus1=p1ulv50.2 kV=0.12 Vminpu=0.8 Vmaxpu=1.2 model=1 kW=4.081735511976485 kvar=0.9882394625849078 Phases=1 yearly=com_kw_14650_pu

New Load.load_p1ulv51_1 conn=wye bus1=p1ulv51.1 kV=0.12 Vminpu=0.8 Vmaxpu=1.2 model=1 kW=6.8172110576108205 kvar=1.958919210380233 Phases=1 yearly=com_kw_14610_pu

New Load.load_p1ulv51_2 conn=wye bus1=p1ulv51.2 kV=0.12 Vminpu=0.8 Vmaxpu=1.2 model=1 kW=6.8172110576108205 kvar=1.958919210380233 Phases=1 yearly=com_kw_14610_pu

New Load.load_p1ulv52_1 conn=wye bus1=p1ulv52.1 kV=0.12 Vminpu=0.8 Vmaxpu=1.2 model=1 kW=13.717390945880759 kvar=0.8234089988226595 Phases=1 yearly=com_kw_13264_pu

New Load.load_p1ulv52_2 conn=wye bus1=p1ulv52.2 kV=0.12 Vminpu=0.8 Vmaxpu=1.2 model=1 kW=13.717390945880759 kvar=0.8234089988226595 Phases=1 yearly=com_kw_13264_pu

New Load.load_p1ulv53 conn=wye bus1=p1ulv53.1.2.3 kV=0.48 Vminpu=0.8 Vmaxpu=1.2 model=1 kW=90.84575360320908 kvar=22.30335579553028 Phases=3 yearly=com_kw_13363_pu

New Load.load_p1ulv54 conn=wye bus1=p1ulv54.1.2.3 kV=0.48 Vminpu=0.8 Vmaxpu=1.2 model=1 kW=32.91516724114198 kvar=9.549692686318968 Phases=3 yearly=com_kw_14862_pu

New Load.load_p1ulv55 conn=wye bus1=p1ulv55.1.2.3 kV=0.48 Vminpu=0.8 Vmaxpu=1.2 model=1 kW=22.152047737869896 kvar=6.510834234174965 Phases=3 yearly=com_kw_14325_pu

New Load.load_p1ulv56 conn=wye bus1=p1ulv56.1.2.3 kV=0.48 Vminpu=0.8 Vmaxpu=1.2 model=1 kW=46.27909493643514 kvar=10.491999571793478 Phases=3 yearly=com_kw_14557_pu

New Load.load_p1ulv57_1 conn=wye bus1=p1ulv57.1 kV=0.12 Vminpu=0.8 Vmaxpu=1.2 model=1 kW=2.7964925670698424 kvar=0.800653953636514 Phases=1 yearly=com_kw_13842_pu

New Load.load_p1ulv57_2 conn=wye bus1=p1ulv57.2 kV=0.12 Vminpu=0.8 Vmaxpu=1.2 model=1 kW=2.7964925670698424 kvar=0.800653953636514 Phases=1 yearly=com_kw_13842_pu

New Load.load_p1ulv58 conn=wye bus1=p1ulv58.1.2.3 kV=0.48 Vminpu=0.8 Vmaxpu=1.2 model=1 kW=51.99338843351495 kvar=2.319560551526166 Phases=3 yearly=com_kw_14574_pu

New Load.load_p1ulv59 conn=wye bus1=p1ulv59.1.2.3 kV=0.48 Vminpu=0.8 Vmaxpu=1.2 model=1 kW=34.95025902709327 kvar=12.584382652547053 Phases=3 yearly=com_kw_14942_pu

New Load.load_p1ulv61 conn=wye bus1=p1ulv61.1.2.3 kV=0.48 Vminpu=0.8 Vmaxpu=1.2 model=1 kW=34.95025902709327 kvar=12.584382652547053 Phases=3 yearly=com_kw_14942_pu

New Load.load_p1ulv62 conn=wye bus1=p1ulv62.1.2.3 kV=0.48 Vminpu=0.8 Vmaxpu=1.2 model=1 kW=63.49698599103352 kvar=17.74612150949521 Phases=3 yearly=com_kw_13188_pu

New Load.load_p1ulv63 conn=wye bus1=p1ulv63.1.2.3 kV=0.48 Vminpu=0.8 Vmaxpu=1.2 model=1 kW=130.0805568207113 kvar=27.423896960169706 Phases=3 yearly=com_kw_14106_pu

New Load.load_p1ulv64 conn=wye bus1=p1ulv64.1.2.3 kV=0.48 Vminpu=0.8 Vmaxpu=1.2 model=1 kW=20.3910576075888 kvar=5.163696871380699 Phases=3 yearly=com_kw_15153_pu

New Load.load_p1ulv66 conn=wye bus1=p1ulv66.1.2.3 kV=0.48 Vminpu=0.8 Vmaxpu=1.2 model=1 kW=34.95025902709327 kvar=12.584382652547053 Phases=3 yearly=com_kw_14942_pu

New Load.load_p1ulv67 conn=wye bus1=p1ulv67.1.2.3 kV=0.48 Vminpu=0.8 Vmaxpu=1.2 model=1 kW=36.50723669611415 kvar=5.711557870450742 Phases=3 yearly=com_kw_14802_pu

New Load.load_p1ulv75 conn=wye bus1=p1ulv75.1.2.3 kV=0.48 Vminpu=0.8 Vmaxpu=1.2 model=1 kW=44.29918903232506 kvar=11.286668375928098 Phases=3 yearly=com_kw_13114_pu

New Load.load_p1ulv79_1 conn=wye bus1=p1ulv79.1 kV=0.12 Vminpu=0.8 Vmaxpu=1.2 model=1 kW=19.692375822483847 kvar=3.199537232488088 Phases=1 yearly=com_kw_12774_pu

New Load.load_p1ulv79_2 conn=wye bus1=p1ulv79.2 kV=0.12 Vminpu=0.8 Vmaxpu=1.2 model=1 kW=19.692375822483847 kvar=3.199537232488088 Phases=1 yearly=com_kw_12774_pu

New Load.load_p1ulv80 conn=wye bus1=p1ulv80.1.2.3 kV=0.48 Vminpu=0.8 Vmaxpu=1.2 model=1 kW=174.69285410291275 kvar=45.82197168104374 Phases=3 yearly=com_kw_15000_pu

New Load.load_p1ulv3299_1 conn=wye bus1=p1ulv3299.1 kV=0.12 Vminpu=0.8 Vmaxpu=1.2 model=1 kW=6.168408370727534 kvar=1.492740670010399 Phases=1 yearly=res_kw_1162_pu

New Load.load_p1ulv3299_2 conn=wye bus1=p1ulv3299.2 kV=0.12 Vminpu=0.8 Vmaxpu=1.2 model=1 kW=6.168408370727534 kvar=1.492740670010399 Phases=1 yearly=res_kw_1162_pu

New Load.load_p1ulv3300_1 conn=wye bus1=p1ulv3300.1 kV=0.12 Vminpu=0.8 Vmaxpu=1.2 model=1 kW=4.8861141847383 kvar=1.2417687859549835 Phases=1 yearly=res_kw_549_pu

New Load.load_p1ulv3300_2 conn=wye bus1=p1ulv3300.2 kV=0.12 Vminpu=0.8 Vmaxpu=1.2 model=1 kW=4.8861141847383 kvar=1.2417687859549835 Phases=1 yearly=res_kw_549_pu

New Load.load_p1ulv3301_1 conn=wye bus1=p1ulv3301.1 kV=0.12 Vminpu=0.8 Vmaxpu=1.2 model=1 kW=5.723135606665604 kvar=1.5038194991101048 Phases=1 yearly=res_kw_1228_pu

New Load.load_p1ulv3301_2 conn=wye bus1=p1ulv3301.2 kV=0.12 Vminpu=0.8 Vmaxpu=1.2 model=1 kW=5.723135606665604 kvar=1.5038194991101048 Phases=1 yearly=res_kw_1228_pu

New Load.load_p1ulv3302_1 conn=wye bus1=p1ulv3302.1 kV=0.12 Vminpu=0.8 Vmaxpu=1.2 model=1 kW=2.40000228705824 kvar=1.0173787262529668 Phases=1 yearly=res_kw_1205_pu

New Load.load_p1ulv3302_2 conn=wye bus1=p1ulv3302.2 kV=0.12 Vminpu=0.8 Vmaxpu=1.2 model=1 kW=2.40000228705824 kvar=1.0173787262529668 Phases=1 yearly=res_kw_1205_pu

New Load.load_p1ulv3303_1 conn=wye bus1=p1ulv3303.1 kV=0.12 Vminpu=0.8 Vmaxpu=1.2 model=1 kW=7.04256695844029 kvar=1.659740351203588 Phases=1 yearly=res_kw_707_pu

New Load.load_p1ulv3303_2 conn=wye bus1=p1ulv3303.2 kV=0.12 Vminpu=0.8 Vmaxpu=1.2 model=1 kW=7.04256695844029 kvar=1.659740351203588 Phases=1 yearly=res_kw_707_pu

New Load.load_p1ulv3304_1 conn=wye bus1=p1ulv3304.1 kV=0.12 Vminpu=0.8 Vmaxpu=1.2 model=1 kW=33.474430232152706 kvar=3.778119727772629 Phases=1 yearly=res_kw_653_pu

New Load.load_p1ulv3304_2 conn=wye bus1=p1ulv3304.2 kV=0.12 Vminpu=0.8 Vmaxpu=1.2 model=1 kW=33.474430232152706 kvar=3.778119727772629 Phases=1 yearly=res_kw_653_pu

New Load.load_p1ulv3305_1 conn=wye bus1=p1ulv3305.1 kV=0.12 Vminpu=0.8 Vmaxpu=1.2 model=1 kW=5.723135606665604 kvar=1.5038194991101048 Phases=1 yearly=res_kw_1228_pu

New Load.load_p1ulv3305_2 conn=wye bus1=p1ulv3305.2 kV=0.12 Vminpu=0.8 Vmaxpu=1.2 model=1 kW=5.723135606665604 kvar=1.5038194991101048 Phases=1 yearly=res_kw_1228_pu

New Load.load_p1ulv3306_1 conn=wye bus1=p1ulv3306.1 kV=0.12 Vminpu=0.8 Vmaxpu=1.2 model=1 kW=8.020736002000627 kvar=0.8077597125403054 Phases=1 yearly=res_kw_411_pu

New Load.load_p1ulv3306_2 conn=wye bus1=p1ulv3306.2 kV=0.12 Vminpu=0.8 Vmaxpu=1.2 model=1 kW=8.020736002000627 kvar=0.8077597125403054 Phases=1 yearly=res_kw_411_pu

New Load.load_p1ulv3307_1 conn=wye bus1=p1ulv3307.1 kV=0.12 Vminpu=0.8 Vmaxpu=1.2 model=1 kW=10.375628907780863 kvar=4.616486224330442 Phases=1 yearly=res_kw_1267_pu

New Load.load_p1ulv3307_2 conn=wye bus1=p1ulv3307.2 kV=0.12 Vminpu=0.8 Vmaxpu=1.2 model=1 kW=10.375628907780863 kvar=4.616486224330442 Phases=1 yearly=res_kw_1267_pu

New Load.load_p1ulv3308_1 conn=wye bus1=p1ulv3308.1 kV=0.12 Vminpu=0.8 Vmaxpu=1.2 model=1 kW=8.020736002000627 kvar=0.8077597125403054 Phases=1 yearly=res_kw_411_pu

New Load.load_p1ulv3308_2 conn=wye bus1=p1ulv3308.2 kV=0.12 Vminpu=0.8 Vmaxpu=1.2 model=1 kW=8.020736002000627 kvar=0.8077597125403054 Phases=1 yearly=res_kw_411_pu

New Load.load_p1ulv3309_1 conn=wye bus1=p1ulv3309.1 kV=0.12 Vminpu=0.8 Vmaxpu=1.2 model=1 kW=6.224817813202313 kvar=1.7553010009693135 Phases=1 yearly=res_kw_710_pu

New Load.load_p1ulv3309_2 conn=wye bus1=p1ulv3309.2 kV=0.12 Vminpu=0.8 Vmaxpu=1.2 model=1 kW=6.224817813202313 kvar=1.7553010009693135 Phases=1 yearly=res_kw_710_pu

New Load.load_p1ulv3310_1 conn=wye bus1=p1ulv3310.1 kV=0.12 Vminpu=0.8 Vmaxpu=1.2 model=1 kW=5.286987923172412 kvar=0.912918656895422 Phases=1 yearly=res_kw_75_pu

New Load.load_p1ulv3310_2 conn=wye bus1=p1ulv3310.2 kV=0.12 Vminpu=0.8 Vmaxpu=1.2 model=1 kW=5.286987923172412 kvar=0.912918656895422 Phases=1 yearly=res_kw_75_pu

New Load.load_p1ulv3311_1 conn=wye bus1=p1ulv3311.1 kV=0.12 Vminpu=0.8 Vmaxpu=1.2 model=1 kW=5.02113589877799 kvar=1.330838974667839 Phases=1 yearly=res_kw_207_pu

New Load.load_p1ulv3311_2 conn=wye bus1=p1ulv3311.2 kV=0.12 Vminpu=0.8 Vmaxpu=1.2 model=1 kW=5.02113589877799 kvar=1.330838974667839 Phases=1 yearly=res_kw_207_pu

New Load.load_p1ulv3312_1 conn=wye bus1=p1ulv3312.1 kV=0.12 Vminpu=0.8 Vmaxpu=1.2 model=1 kW=8.01962100453296 kvar=1.9011506674959975 Phases=1 yearly=res_kw_380_pu

New Load.load_p1ulv3312_2 conn=wye bus1=p1ulv3312.2 kV=0.12 Vminpu=0.8 Vmaxpu=1.2 model=1 kW=8.01962100453296 kvar=1.9011506674959975 Phases=1 yearly=res_kw_380_pu

New Load.load_p1ulv3313_1 conn=wye bus1=p1ulv3313.1 kV=0.12 Vminpu=0.8 Vmaxpu=1.2 model=1 kW=5.436729579526792 kvar=1.2488470964899614 Phases=1 yearly=res_kw_454_pu

New Load.load_p1ulv3313_2 conn=wye bus1=p1ulv3313.2 kV=0.12 Vminpu=0.8 Vmaxpu=1.2 model=1 kW=5.436729579526792 kvar=1.2488470964899614 Phases=1 yearly=res_kw_454_pu

New Load.load_p1ulv3314_1 conn=wye bus1=p1ulv3314.1 kV=0.12 Vminpu=0.8 Vmaxpu=1.2 model=1 kW=4.666080754031652 kvar=0.9704814918535188 Phases=1 yearly=res_kw_280_pu

New Load.load_p1ulv3314_2 conn=wye bus1=p1ulv3314.2 kV=0.12 Vminpu=0.8 Vmaxpu=1.2 model=1 kW=4.666080754031652 kvar=0.9704814918535188 Phases=1 yearly=res_kw_280_pu

New Load.load_p1ulv3315_1 conn=wye bus1=p1ulv3315.1 kV=0.12 Vminpu=0.8 Vmaxpu=1.2 model=1 kW=2.40000228705824 kvar=1.0173787262529668 Phases=1 yearly=res_kw_1205_pu

New Load.load_p1ulv3315_2 conn=wye bus1=p1ulv3315.2 kV=0.12 Vminpu=0.8 Vmaxpu=1.2 model=1 kW=2.40000228705824 kvar=1.0173787262529668 Phases=1 yearly=res_kw_1205_pu

New Load.load_p1ulv3316_1 conn=wye bus1=p1ulv3316.1 kV=0.12 Vminpu=0.8 Vmaxpu=1.2 model=1 kW=5.436729579526792 kvar=1.2488470964899614 Phases=1 yearly=res_kw_454_pu

New Load.load_p1ulv3316_2 conn=wye bus1=p1ulv3316.2 kV=0.12 Vminpu=0.8 Vmaxpu=1.2 model=1 kW=5.436729579526792 kvar=1.2488470964899614 Phases=1 yearly=res_kw_454_pu

New Load.load_p1ulv3317_1 conn=wye bus1=p1ulv3317.1 kV=0.12 Vminpu=0.8 Vmaxpu=1.2 model=1 kW=5.286987923172412 kvar=0.912918656895422 Phases=1 yearly=res_kw_75_pu

New Load.load_p1ulv3317_2 conn=wye bus1=p1ulv3317.2 kV=0.12 Vminpu=0.8 Vmaxpu=1.2 model=1 kW=5.286987923172412 kvar=0.912918656895422 Phases=1 yearly=res_kw_75_pu

New Load.load_p1ulv3318_1 conn=wye bus1=p1ulv3318.1 kV=0.12 Vminpu=0.8 Vmaxpu=1.2 model=1 kW=3.6844020253442458 kvar=1.4451491397155931 Phases=1 yearly=res_kw_1258_pu

New Load.load_p1ulv3318_2 conn=wye bus1=p1ulv3318.2 kV=0.12 Vminpu=0.8 Vmaxpu=1.2 model=1 kW=3.6844020253442458 kvar=1.4451491397155931 Phases=1 yearly=res_kw_1258_pu

New Load.load_p1ulv3319_1 conn=wye bus1=p1ulv3319.1 kV=0.12 Vminpu=0.8 Vmaxpu=1.2 model=1 kW=3.469755020859998 kvar=0.8941520384931253 Phases=1 yearly=res_kw_4_pu

New Load.load_p1ulv3319_2 conn=wye bus1=p1ulv3319.2 kV=0.12 Vminpu=0.8 Vmaxpu=1.2 model=1 kW=3.469755020859998 kvar=0.8941520384931253 Phases=1 yearly=res_kw_4_pu

New Load.load_p1ulv3320_1 conn=wye bus1=p1ulv3320.1 kV=0.12 Vminpu=0.8 Vmaxpu=1.2 model=1 kW=3.8748715750127736 kvar=1.5614372175332516 Phases=1 yearly=res_kw_517_pu

New Load.load_p1ulv3320_2 conn=wye bus1=p1ulv3320.2 kV=0.12 Vminpu=0.8 Vmaxpu=1.2 model=1 kW=3.8748715750127736 kvar=1.5614372175332516 Phases=1 yearly=res_kw_517_pu

New Load.load_p1ulv3321_1 conn=wye bus1=p1ulv3321.1 kV=0.12 Vminpu=0.8 Vmaxpu=1.2 model=1 kW=5.436729579526792 kvar=1.2488470964899614 Phases=1 yearly=res_kw_454_pu

New Load.load_p1ulv3321_2 conn=wye bus1=p1ulv3321.2 kV=0.12 Vminpu=0.8 Vmaxpu=1.2 model=1 kW=5.436729579526792 kvar=1.2488470964899614 Phases=1 yearly=res_kw_454_pu

New Load.load_p1ulv3322_1 conn=wye bus1=p1ulv3322.1 kV=0.12 Vminpu=0.8 Vmaxpu=1.2 model=1 kW=3.629714039262861 kvar=1.2034402112399032 Phases=1 yearly=res_kw_203_pu

New Load.load_p1ulv3322_2 conn=wye bus1=p1ulv3322.2 kV=0.12 Vminpu=0.8 Vmaxpu=1.2 model=1 kW=3.629714039262861 kvar=1.2034402112399032 Phases=1 yearly=res_kw_203_pu

New Load.load_p1ulv3323_1 conn=wye bus1=p1ulv3323.1 kV=0.12 Vminpu=0.8 Vmaxpu=1.2 model=1 kW=2.456740089175818 kvar=0.4991709793701422 Phases=1 yearly=res_kw_331_pu

New Load.load_p1ulv3323_2 conn=wye bus1=p1ulv3323.2 kV=0.12 Vminpu=0.8 Vmaxpu=1.2 model=1 kW=2.456740089175818 kvar=0.4991709793701422 Phases=1 yearly=res_kw_331_pu

New Load.load_p1ulv3325_1 conn=wye bus1=p1ulv3325.1 kV=0.12 Vminpu=0.8 Vmaxpu=1.2 model=1 kW=6.817994061838357 kvar=0.9100697715919355 Phases=1 yearly=res_kw_1099_pu

New Load.load_p1ulv3325_2 conn=wye bus1=p1ulv3325.2 kV=0.12 Vminpu=0.8 Vmaxpu=1.2 model=1 kW=6.817994061838357 kvar=0.9100697715919355 Phases=1 yearly=res_kw_1099_pu

New Load.load_p1ulv3326_1 conn=wye bus1=p1ulv3326.1 kV=0.12 Vminpu=0.8 Vmaxpu=1.2 model=1 kW=3.789884331965197 kvar=1.0036576715582408 Phases=1 yearly=res_kw_670_pu

New Load.load_p1ulv3326_2 conn=wye bus1=p1ulv3326.2 kV=0.12 Vminpu=0.8 Vmaxpu=1.2 model=1 kW=3.789884331965197 kvar=1.0036576715582408 Phases=1 yearly=res_kw_670_pu

New Load.load_p1ulv3328_1 conn=wye bus1=p1ulv3328.1 kV=0.12 Vminpu=0.8 Vmaxpu=1.2 model=1 kW=7.816877794674849 kvar=0.3835386548196207 Phases=1 yearly=res_kw_763_pu

New Load.load_p1ulv3328_2 conn=wye bus1=p1ulv3328.2 kV=0.12 Vminpu=0.8 Vmaxpu=1.2 model=1 kW=7.816877794674849 kvar=0.3835386548196207 Phases=1 yearly=res_kw_763_pu

New Load.load_p1ulv3334_1 conn=wye bus1=p1ulv3334.1 kV=0.12 Vminpu=0.8 Vmaxpu=1.2 model=1 kW=2.40000228705824 kvar=1.0173787262529668 Phases=1 yearly=res_kw_1205_pu

New Load.load_p1ulv3334_2 conn=wye bus1=p1ulv3334.2 kV=0.12 Vminpu=0.8 Vmaxpu=1.2 model=1 kW=2.40000228705824 kvar=1.0173787262529668 Phases=1 yearly=res_kw_1205_pu

New Load.load_p1ulv3335_1 conn=wye bus1=p1ulv3335.1 kV=0.12 Vminpu=0.8 Vmaxpu=1.2 model=1 kW=3.8748715750127736 kvar=1.5614372175332516 Phases=1 yearly=res_kw_517_pu

New Load.load_p1ulv3335_2 conn=wye bus1=p1ulv3335.2 kV=0.12 Vminpu=0.8 Vmaxpu=1.2 model=1 kW=3.8748715750127736 kvar=1.5614372175332516 Phases=1 yearly=res_kw_517_pu

New Load.load_p1ulv3347_1 conn=wye bus1=p1ulv3347.1 kV=0.12 Vminpu=0.8 Vmaxpu=1.2 model=1 kW=18.487291050551754 kvar=3.8726939013399893 Phases=1 yearly=res_kw_271_pu

New Load.load_p1ulv3347_2 conn=wye bus1=p1ulv3347.2 kV=0.12 Vminpu=0.8 Vmaxpu=1.2 model=1 kW=18.487291050551754 kvar=3.8726939013399893 Phases=1 yearly=res_kw_271_pu

New Load.load_p1ulv3350_1 conn=wye bus1=p1ulv3347.1 kV=0.12 Vminpu=0.8 Vmaxpu=1.2 model=1 kW=5.436729579526792 kvar=1.2488470964899614 Phases=1 yearly=res_kw_454_pu

New Load.load_p1ulv3350_2 conn=wye bus1=p1ulv3347.2 kV=0.12 Vminpu=0.8 Vmaxpu=1.2 model=1 kW=5.436729579526792 kvar=1.2488470964899614 Phases=1 yearly=res_kw_454_pu

New Load.load_p1ulv3355_1 conn=wye bus1=p1ulv3355.1 kV=0.12 Vminpu=0.8 Vmaxpu=1.2 model=1 kW=14.404204781856079 kvar=3.036808033672637 Phases=1 yearly=res_kw_560_pu

New Load.load_p1ulv3355_2 conn=wye bus1=p1ulv3355.2 kV=0.12 Vminpu=0.8 Vmaxpu=1.2 model=1 kW=14.404204781856079 kvar=3.036808033672637 Phases=1 yearly=res_kw_560_pu

New Load.load_p1ulv3363_1 conn=wye bus1=p1ulv3363.1 kV=0.12 Vminpu=0.8 Vmaxpu=1.2 model=1 kW=7.190990944658071 kvar=1.372777711240934 Phases=1 yearly=res_kw_142_pu

New Load.load_p1ulv3363_2 conn=wye bus1=p1ulv3363.2 kV=0.12 Vminpu=0.8 Vmaxpu=1.2 model=1 kW=7.190990944658071 kvar=1.372777711240934 Phases=1 yearly=res_kw_142_pu

New Load.load_p1ulv3364_1 conn=wye bus1=p1ulv3364.1 kV=0.12 Vminpu=0.8 Vmaxpu=1.2 model=1 kW=5.6593015111322105 kvar=1.2761251920573724 Phases=1 yearly=res_kw_324_pu

New Load.load_p1ulv3364_2 conn=wye bus1=p1ulv3364.2 kV=0.12 Vminpu=0.8 Vmaxpu=1.2 model=1 kW=5.6593015111322105 kvar=1.2761251920573724 Phases=1 yearly=res_kw_324_pu

New Load.load_p1ulv3368_1 conn=wye bus1=p1ulv3368.1 kV=0.12 Vminpu=0.8 Vmaxpu=1.2 model=1 kW=2.40000228705824 kvar=1.0173787262529668 Phases=1 yearly=res_kw_1205_pu

New Load.load_p1ulv3368_2 conn=wye bus1=p1ulv3368.2 kV=0.12 Vminpu=0.8 Vmaxpu=1.2 model=1 kW=2.40000228705824 kvar=1.0173787262529668 Phases=1 yearly=res_kw_1205_pu

New Load.load_p1ulv3379_1 conn=wye bus1=p1ulv3379.1 kV=0.12 Vminpu=0.8 Vmaxpu=1.2 model=1 kW=2.6241521841182514 kvar=0.8429304779950015 Phases=1 yearly=res_kw_33_pu

New Load.load_p1ulv3379_2 conn=wye bus1=p1ulv3379.2 kV=0.12 Vminpu=0.8 Vmaxpu=1.2 model=1 kW=2.6241521841182514 kvar=0.8429304779950015 Phases=1 yearly=res_kw_33_pu

New Load.load_p1ulv4243_1 conn=wye bus1=p1ulv4243.1 kV=0.12 Vminpu=0.8 Vmaxpu=1.2 model=1 kW=11.457721527492426 kvar=1.3801854390555242 Phases=1 yearly=res_kw_861_pu

New Load.load_p1ulv4243_2 conn=wye bus1=p1ulv4243.2 kV=0.12 Vminpu=0.8 Vmaxpu=1.2 model=1 kW=11.457721527492426 kvar=1.3801854390555242 Phases=1 yearly=res_kw_861_pu

New Load.load_p1ulv4244_1 conn=wye bus1=p1ulv4244.1 kV=0.12 Vminpu=0.8 Vmaxpu=1.2 model=1 kW=4.666080754031652 kvar=0.9704814918535188 Phases=1 yearly=res_kw_280_pu

New Load.load_p1ulv4244_2 conn=wye bus1=p1ulv4244.2 kV=0.12 Vminpu=0.8 Vmaxpu=1.2 model=1 kW=4.666080754031652 kvar=0.9704814918535188 Phases=1 yearly=res_kw_280_pu

New Load.load_p1ulv4245_1 conn=wye bus1=p1ulv4245.1 kV=0.12 Vminpu=0.8 Vmaxpu=1.2 model=1 kW=3.6844020253442458 kvar=1.4451491397155931 Phases=1 yearly=res_kw_1258_pu

New Load.load_p1ulv4245_2 conn=wye bus1=p1ulv4245.2 kV=0.12 Vminpu=0.8 Vmaxpu=1.2 model=1 kW=3.6844020253442458 kvar=1.4451491397155931 Phases=1 yearly=res_kw_1258_pu

New Load.load_p1ulv4246_1 conn=wye bus1=p1ulv4246.1 kV=0.12 Vminpu=0.8 Vmaxpu=1.2 model=1 kW=4.986227080874017 kvar=1.1489501843655672 Phases=1 yearly=res_kw_924_pu

New Load.load_p1ulv4246_2 conn=wye bus1=p1ulv4246.2 kV=0.12 Vminpu=0.8 Vmaxpu=1.2 model=1 kW=4.986227080874017 kvar=1.1489501843655672 Phases=1 yearly=res_kw_924_pu

New Load.load_p1ulv4247_1 conn=wye bus1=p1ulv4247.1 kV=0.12 Vminpu=0.8 Vmaxpu=1.2 model=1 kW=2.40000228705824 kvar=1.0173787262529668 Phases=1 yearly=res_kw_1205_pu

New Load.load_p1ulv4247_2 conn=wye bus1=p1ulv4247.2 kV=0.12 Vminpu=0.8 Vmaxpu=1.2 model=1 kW=2.40000228705824 kvar=1.0173787262529668 Phases=1 yearly=res_kw_1205_pu

New Load.load_p1ulv4248_1 conn=wye bus1=p1ulv4248.1 kV=0.12 Vminpu=0.8 Vmaxpu=1.2 model=1 kW=1.8636614682402992 kvar=0.5015179682387616 Phases=1 yearly=res_kw_532_pu

New Load.load_p1ulv4248_2 conn=wye bus1=p1ulv4248.2 kV=0.12 Vminpu=0.8 Vmaxpu=1.2 model=1 kW=1.8636614682402992 kvar=0.5015179682387616 Phases=1 yearly=res_kw_532_pu

New Load.load_p1ulv4249_1 conn=wye bus1=p1ulv4249.1 kV=0.12 Vminpu=0.8 Vmaxpu=1.2 model=1 kW=9.666699253995569 kvar=2.090221480167897 Phases=1 yearly=res_kw_46_pu

New Load.load_p1ulv4249_2 conn=wye bus1=p1ulv4249.2 kV=0.12 Vminpu=0.8 Vmaxpu=1.2 model=1 kW=9.666699253995569 kvar=2.090221480167897 Phases=1 yearly=res_kw_46_pu

New Load.load_p1ulv4250_1 conn=wye bus1=p1ulv4250.1 kV=0.12 Vminpu=0.8 Vmaxpu=1.2 model=1 kW=6.495867403886884 kvar=1.0074089308244782 Phases=1 yearly=res_kw_597_pu

New Load.load_p1ulv4250_2 conn=wye bus1=p1ulv4250.2 kV=0.12 Vminpu=0.8 Vmaxpu=1.2 model=1 kW=6.495867403886884 kvar=1.0074089308244782 Phases=1 yearly=res_kw_597_pu

New Load.load_p1ulv4380_1 conn=wye bus1=p1ulv4380.1 kV=0.12 Vminpu=0.8 Vmaxpu=1.2 model=1 kW=3.963001053413761 kvar=0.9410786890170905 Phases=1 yearly=res_kw_1256_pu

New Load.load_p1ulv4380_2 conn=wye bus1=p1ulv4380.2 kV=0.12 Vminpu=0.8 Vmaxpu=1.2 model=1 kW=3.963001053413761 kvar=0.9410786890170905 Phases=1 yearly=res_kw_1256_pu

New Load.load_p1ulv4381_1 conn=wye bus1=p1ulv4381.1 kV=0.12 Vminpu=0.8 Vmaxpu=1.2 model=1 kW=2.6241521841182514 kvar=0.8429304779950015 Phases=1 yearly=res_kw_33_pu

New Load.load_p1ulv4381_2 conn=wye bus1=p1ulv4381.2 kV=0.12 Vminpu=0.8 Vmaxpu=1.2 model=1 kW=2.6241521841182514 kvar=0.8429304779950015 Phases=1 yearly=res_kw_33_pu

New Load.load_p1ulv4382_1 conn=wye bus1=p1ulv4382.1 kV=0.12 Vminpu=0.8 Vmaxpu=1.2 model=1 kW=7.04256695844029 kvar=1.659740351203588 Phases=1 yearly=res_kw_707_pu

New Load.load_p1ulv4382_2 conn=wye bus1=p1ulv4382.2 kV=0.12 Vminpu=0.8 Vmaxpu=1.2 model=1 kW=7.04256695844029 kvar=1.659740351203588 Phases=1 yearly=res_kw_707_pu

New Load.load_p1ulv4383_1 conn=wye bus1=p1ulv4383.1 kV=0.12 Vminpu=0.8 Vmaxpu=1.2 model=1 kW=3.789884331965197 kvar=1.0036576715582408 Phases=1 yearly=res_kw_670_pu

New Load.load_p1ulv4383_2 conn=wye bus1=p1ulv4383.2 kV=0.12 Vminpu=0.8 Vmaxpu=1.2 model=1 kW=3.789884331965197 kvar=1.0036576715582408 Phases=1 yearly=res_kw_670_pu

New Load.load_p1ulv4384_1 conn=wye bus1=p1ulv4384.1 kV=0.12 Vminpu=0.8 Vmaxpu=1.2 model=1 kW=3.8748715750127736 kvar=1.5614372175332516 Phases=1 yearly=res_kw_517_pu

New Load.load_p1ulv4384_2 conn=wye bus1=p1ulv4384.2 kV=0.12 Vminpu=0.8 Vmaxpu=1.2 model=1 kW=3.8748715750127736 kvar=1.5614372175332516 Phases=1 yearly=res_kw_517_pu

New Load.load_p1ulv4385_1 conn=wye bus1=p1ulv4385.1 kV=0.12 Vminpu=0.8 Vmaxpu=1.2 model=1 kW=1.8636614682402992 kvar=0.5015179682387616 Phases=1 yearly=res_kw_532_pu

New Load.load_p1ulv4385_2 conn=wye bus1=p1ulv4385.2 kV=0.12 Vminpu=0.8 Vmaxpu=1.2 model=1 kW=1.8636614682402992 kvar=0.5015179682387616 Phases=1 yearly=res_kw_532_pu

New Load.load_p1ulv4386_1 conn=wye bus1=p1ulv4386.1 kV=0.12 Vminpu=0.8 Vmaxpu=1.2 model=1 kW=3.789884331965197 kvar=1.0036576715582408 Phases=1 yearly=res_kw_670_pu

New Load.load_p1ulv4386_2 conn=wye bus1=p1ulv4386.2 kV=0.12 Vminpu=0.8 Vmaxpu=1.2 model=1 kW=3.789884331965197 kvar=1.0036576715582408 Phases=1 yearly=res_kw_670_pu

New Load.load_p1ulv4387_1 conn=wye bus1=p1ulv4387.1 kV=0.12 Vminpu=0.8 Vmaxpu=1.2 model=1 kW=2.605021030189827 kvar=1.0007509371876184 Phases=1 yearly=res_kw_24_pu

New Load.load_p1ulv4387_2 conn=wye bus1=p1ulv4387.2 kV=0.12 Vminpu=0.8 Vmaxpu=1.2 model=1 kW=2.605021030189827 kvar=1.0007509371876184 Phases=1 yearly=res_kw_24_pu

New Load.load_p1ulv4388_1 conn=wye bus1=p1ulv4388.1 kV=0.12 Vminpu=0.8 Vmaxpu=1.2 model=1 kW=11.457721527492426 kvar=1.3801854390555242 Phases=1 yearly=res_kw_861_pu

New Load.load_p1ulv4388_2 conn=wye bus1=p1ulv4388.2 kV=0.12 Vminpu=0.8 Vmaxpu=1.2 model=1 kW=11.457721527492426 kvar=1.3801854390555242 Phases=1 yearly=res_kw_861_pu

New Load.load_p1ulv4389_1 conn=wye bus1=p1ulv4389.1 kV=0.12 Vminpu=0.8 Vmaxpu=1.2 model=1 kW=3.6844020253442458 kvar=1.4451491397155931 Phases=1 yearly=res_kw_1258_pu

New Load.load_p1ulv4389_2 conn=wye bus1=p1ulv4389.2 kV=0.12 Vminpu=0.8 Vmaxpu=1.2 model=1 kW=3.6844020253442458 kvar=1.4451491397155931 Phases=1 yearly=res_kw_1258_pu

New Load.load_p1ulv4390_1 conn=wye bus1=p1ulv4390.1 kV=0.12 Vminpu=0.8 Vmaxpu=1.2 model=1 kW=6.294621884355657 kvar=1.2961288323966025 Phases=1 yearly=res_kw_689_pu

New Load.load_p1ulv4390_2 conn=wye bus1=p1ulv4390.2 kV=0.12 Vminpu=0.8 Vmaxpu=1.2 model=1 kW=6.294621884355657 kvar=1.2961288323966025 Phases=1 yearly=res_kw_689_pu

New Load.load_p1ulv4391_1 conn=wye bus1=p1ulv4391.1 kV=0.12 Vminpu=0.8 Vmaxpu=1.2 model=1 kW=6.727252203449795 kvar=1.9067277455995406 Phases=1 yearly=res_kw_822_pu

New Load.load_p1ulv4391_2 conn=wye bus1=p1ulv4391.2 kV=0.12 Vminpu=0.8 Vmaxpu=1.2 model=1 kW=6.727252203449795 kvar=1.9067277455995406 Phases=1 yearly=res_kw_822_pu

New Load.load_p1ulv4392_1 conn=wye bus1=p1ulv4392.1 kV=0.12 Vminpu=0.8 Vmaxpu=1.2 model=1 kW=5.6593015111322105 kvar=1.2761251920573724 Phases=1 yearly=res_kw_324_pu

New Load.load_p1ulv4392_2 conn=wye bus1=p1ulv4392.2 kV=0.12 Vminpu=0.8 Vmaxpu=1.2 model=1 kW=5.6593015111322105 kvar=1.2761251920573724 Phases=1 yearly=res_kw_324_pu

New Load.load_p1ulv4393_1 conn=wye bus1=p1ulv4393.1 kV=0.12 Vminpu=0.8 Vmaxpu=1.2 model=1 kW=3.469755020859998 kvar=0.8941520384931253 Phases=1 yearly=res_kw_4_pu

New Load.load_p1ulv4393_2 conn=wye bus1=p1ulv4393.2 kV=0.12 Vminpu=0.8 Vmaxpu=1.2 model=1 kW=3.469755020859998 kvar=0.8941520384931253 Phases=1 yearly=res_kw_4_pu

New Load.load_p1ulv4394_1 conn=wye bus1=p1ulv4394.1 kV=0.12 Vminpu=0.8 Vmaxpu=1.2 model=1 kW=6.484825325204597 kvar=1.6440419394084307 Phases=1 yearly=res_kw_1115_pu

New Load.load_p1ulv4394_2 conn=wye bus1=p1ulv4394.2 kV=0.12 Vminpu=0.8 Vmaxpu=1.2 model=1 kW=6.484825325204597 kvar=1.6440419394084307 Phases=1 yearly=res_kw_1115_pu

New Load.load_p1ulv4395_1 conn=wye bus1=p1ulv4395.1 kV=0.12 Vminpu=0.8 Vmaxpu=1.2 model=1 kW=5.772584848285176 kvar=1.3225757839012733 Phases=1 yearly=res_kw_599_pu

New Load.load_p1ulv4395_2 conn=wye bus1=p1ulv4395.2 kV=0.12 Vminpu=0.8 Vmaxpu=1.2 model=1 kW=5.772584848285176 kvar=1.3225757839012733 Phases=1 yearly=res_kw_599_pu

New Load.load_p1ulv4396_1 conn=wye bus1=p1ulv4396.1 kV=0.12 Vminpu=0.8 Vmaxpu=1.2 model=1 kW=3.789884331965197 kvar=1.0036576715582408 Phases=1 yearly=res_kw_670_pu

New Load.load_p1ulv4396_2 conn=wye bus1=p1ulv4396.2 kV=0.12 Vminpu=0.8 Vmaxpu=1.2 model=1 kW=3.789884331965197 kvar=1.0036576715582408 Phases=1 yearly=res_kw_670_pu

New Load.load_p1ulv4397_1 conn=wye bus1=p1ulv4397.1 kV=0.12 Vminpu=0.8 Vmaxpu=1.2 model=1 kW=5.286987923172412 kvar=0.912918656895422 Phases=1 yearly=res_kw_75_pu

New Load.load_p1ulv4397_2 conn=wye bus1=p1ulv4397.2 kV=0.12 Vminpu=0.8 Vmaxpu=1.2 model=1 kW=5.286987923172412 kvar=0.912918656895422 Phases=1 yearly=res_kw_75_pu

New Load.load_p1ulv4398_1 conn=wye bus1=p1ulv4398.1 kV=0.12 Vminpu=0.8 Vmaxpu=1.2 model=1 kW=3.3641909207712115 kvar=0.9284266244461494 Phases=1 yearly=res_kw_523_pu

New Load.load_p1ulv4398_2 conn=wye bus1=p1ulv4398.2 kV=0.12 Vminpu=0.8 Vmaxpu=1.2 model=1 kW=3.3641909207712115 kvar=0.9284266244461494 Phases=1 yearly=res_kw_523_pu

New Load.load_p1ulv4399_1 conn=wye bus1=p1ulv4399.1 kV=0.12 Vminpu=0.8 Vmaxpu=1.2 model=1 kW=3.8748715750127736 kvar=1.5614372175332516 Phases=1 yearly=res_kw_517_pu

New Load.load_p1ulv4399_2 conn=wye bus1=p1ulv4399.2 kV=0.12 Vminpu=0.8 Vmaxpu=1.2 model=1 kW=3.8748715750127736 kvar=1.5614372175332516 Phases=1 yearly=res_kw_517_pu

New Load.load_p1ulv4400_1 conn=wye bus1=p1ulv4400.1 kV=0.12 Vminpu=0.8 Vmaxpu=1.2 model=1 kW=3.8748715750127736 kvar=1.5614372175332516 Phases=1 yearly=res_kw_517_pu

New Load.load_p1ulv4400_2 conn=wye bus1=p1ulv4400.2 kV=0.12 Vminpu=0.8 Vmaxpu=1.2 model=1 kW=3.8748715750127736 kvar=1.5614372175332516 Phases=1 yearly=res_kw_517_pu

New Load.load_p1ulv4401_1 conn=wye bus1=p1ulv4401.1 kV=0.12 Vminpu=0.8 Vmaxpu=1.2 model=1 kW=6.509851554537701 kvar=1.8030128852474767 Phases=1 yearly=res_kw_959_pu

New Load.load_p1ulv4401_2 conn=wye bus1=p1ulv4401.2 kV=0.12 Vminpu=0.8 Vmaxpu=1.2 model=1 kW=6.509851554537701 kvar=1.8030128852474767 Phases=1 yearly=res_kw_959_pu

New Load.load_p1ulv4402_1 conn=wye bus1=p1ulv4402.1 kV=0.12 Vminpu=0.8 Vmaxpu=1.2 model=1 kW=3.469521951913567 kvar=0.9490620687569232 Phases=1 yearly=res_kw_825_pu

New Load.load_p1ulv4402_2 conn=wye bus1=p1ulv4402.2 kV=0.12 Vminpu=0.8 Vmaxpu=1.2 model=1 kW=3.469521951913567 kvar=0.9490620687569232 Phases=1 yearly=res_kw_825_pu

New Load.load_p1ulv4403_1 conn=wye bus1=p1ulv4403.1 kV=0.12 Vminpu=0.8 Vmaxpu=1.2 model=1 kW=3.8748715750127736 kvar=1.5614372175332516 Phases=1 yearly=res_kw_517_pu

New Load.load_p1ulv4403_2 conn=wye bus1=p1ulv4403.2 kV=0.12 Vminpu=0.8 Vmaxpu=1.2 model=1 kW=3.8748715750127736 kvar=1.5614372175332516 Phases=1 yearly=res_kw_517_pu

New Load.load_p1ulv4404_1 conn=wye bus1=p1ulv4404.1 kV=0.12 Vminpu=0.8 Vmaxpu=1.2 model=1 kW=8.04422437787292 kvar=1.3373848866311981 Phases=1 yearly=res_kw_695_pu

New Load.load_p1ulv4404_2 conn=wye bus1=p1ulv4404.2 kV=0.12 Vminpu=0.8 Vmaxpu=1.2 model=1 kW=8.04422437787292 kvar=1.3373848866311981 Phases=1 yearly=res_kw_695_pu

New Load.load_p1ulv4405_1 conn=wye bus1=p1ulv4405.1 kV=0.12 Vminpu=0.8 Vmaxpu=1.2 model=1 kW=3.789884331965197 kvar=1.0036576715582408 Phases=1 yearly=res_kw_670_pu

New Load.load_p1ulv4405_2 conn=wye bus1=p1ulv4405.2 kV=0.12 Vminpu=0.8 Vmaxpu=1.2 model=1 kW=3.789884331965197 kvar=1.0036576715582408 Phases=1 yearly=res_kw_670_pu

New Load.load_p1ulv4406_1 conn=wye bus1=p1ulv4406.1 kV=0.12 Vminpu=0.8 Vmaxpu=1.2 model=1 kW=3.6844020253442458 kvar=1.4451491397155931 Phases=1 yearly=res_kw_1258_pu

New Load.load_p1ulv4406_2 conn=wye bus1=p1ulv4406.2 kV=0.12 Vminpu=0.8 Vmaxpu=1.2 model=1 kW=3.6844020253442458 kvar=1.4451491397155931 Phases=1 yearly=res_kw_1258_pu

New Load.load_p1ulv4407_1 conn=wye bus1=p1ulv4407.1 kV=0.12 Vminpu=0.8 Vmaxpu=1.2 model=1 kW=5.020630418662337 kvar=1.4660260271132275 Phases=1 yearly=res_kw_664_pu

New Load.load_p1ulv4407_2 conn=wye bus1=p1ulv4407.2 kV=0.12 Vminpu=0.8 Vmaxpu=1.2 model=1 kW=5.020630418662337 kvar=1.4660260271132275 Phases=1 yearly=res_kw_664_pu

New Load.load_p1ulv4408_1 conn=wye bus1=p1ulv4408.1 kV=0.12 Vminpu=0.8 Vmaxpu=1.2 model=1 kW=5.991917116566147 kvar=1.6692124001399427 Phases=1 yearly=res_kw_314_pu

New Load.load_p1ulv4408_2 conn=wye bus1=p1ulv4408.2 kV=0.12 Vminpu=0.8 Vmaxpu=1.2 model=1 kW=5.991917116566147 kvar=1.6692124001399427 Phases=1 yearly=res_kw_314_pu
