New Loadshape.GSO_36.0721_-79.9153_55_90 npts= 35040 interval=0.25 mult = (file=../../../../profiles/GSO_36.0721_-79.9153_55_90.csv)

New Loadshape.GSO_36.1090_-79.9153_25_180 npts= 35040 interval=0.25 mult = (file=../../../../profiles/GSO_36.1090_-79.9153_25_180.csv)

New Loadshape.GSO_36.0721_-79.9153_55_270 npts= 35040 interval=0.25 mult = (file=../../../../profiles/GSO_36.0721_-79.9153_55_270.csv)

New Loadshape.GSO_36.0352_-79.9153_45_90 npts= 35040 interval=0.25 mult = (file=../../../../profiles/GSO_36.0352_-79.9153_45_90.csv)

New Loadshape.GSO_36.0721_-79.9153_35_135 npts= 35040 interval=0.25 mult = (file=../../../../profiles/GSO_36.0721_-79.9153_35_135.csv)

New Loadshape.GSO_36.0721_-79.9153_35_270 npts= 35040 interval=0.25 mult = (file=../../../../profiles/GSO_36.0721_-79.9153_35_270.csv)

New Loadshape.GSO_36.0721_-79.9153_15_270 npts= 35040 interval=0.25 mult = (file=../../../../profiles/GSO_36.0721_-79.9153_15_270.csv)

New Loadshape.GSO_36.0721_-79.9153_35_225 npts= 35040 interval=0.25 mult = (file=../../../../profiles/GSO_36.0721_-79.9153_35_225.csv)

New Loadshape.GSO_36.0721_-79.9153_45_225 npts= 35040 interval=0.25 mult = (file=../../../../profiles/GSO_36.0721_-79.9153_45_225.csv)

New Loadshape.GSO_36.0721_-79.9153_25_90 npts= 35040 interval=0.25 mult = (file=../../../../profiles/GSO_36.0721_-79.9153_25_90.csv)

New Loadshape.GSO_36.0721_-79.9153_25_180 npts= 35040 interval=0.25 mult = (file=../../../../profiles/GSO_36.0721_-79.9153_25_180.csv)

New Loadshape.GSO_36.0721_-79.9153_15_90 npts= 35040 interval=0.25 mult = (file=../../../../profiles/GSO_36.0721_-79.9153_15_90.csv)

New Loadshape.GSO_36.0721_-79.9153_15_180 npts= 35040 interval=0.25 mult = (file=../../../../profiles/GSO_36.0721_-79.9153_15_180.csv)

New Loadshape.GSO_36.0721_-79.9153_25_270 npts= 35040 interval=0.25 mult = (file=../../../../profiles/GSO_36.0721_-79.9153_25_270.csv)

New Loadshape.GSO_36.0721_-79.9153_35_90 npts= 35040 interval=0.25 mult = (file=../../../../profiles/GSO_36.0721_-79.9153_35_90.csv)

New Loadshape.GSO_36.0721_-79.9153_55_135 npts= 35040 interval=0.25 mult = (file=../../../../profiles/GSO_36.0721_-79.9153_55_135.csv)

New Loadshape.GSO_36.0721_-79.9153_15_225 npts= 35040 interval=0.25 mult = (file=../../../../profiles/GSO_36.0721_-79.9153_15_225.csv)

New Loadshape.GSO_36.0721_-79.9153_15_135 npts= 35040 interval=0.25 mult = (file=../../../../profiles/GSO_36.0721_-79.9153_15_135.csv)

New Loadshape.GSO_36.0721_-79.9153_45_180 npts= 35040 interval=0.25 mult = (file=../../../../profiles/GSO_36.0721_-79.9153_45_180.csv)

New Loadshape.GSO_36.0721_-79.9153_35_180 npts= 35040 interval=0.25 mult = (file=../../../../profiles/GSO_36.0721_-79.9153_35_180.csv)

New Loadshape.GSO_36.0721_-79.9153_25_225 npts= 35040 interval=0.25 mult = (file=../../../../profiles/GSO_36.0721_-79.9153_25_225.csv)

New Loadshape.GSO_36.0721_-79.9153_25_135 npts= 35040 interval=0.25 mult = (file=../../../../profiles/GSO_36.0721_-79.9153_25_135.csv)

New Loadshape.GSO_36.0721_-79.9153_45_135 npts= 35040 interval=0.25 mult = (file=../../../../profiles/GSO_36.0721_-79.9153_45_135.csv)

New Loadshape.GSO_36.0721_-79.9153_45_270 npts= 35040 interval=0.25 mult = (file=../../../../profiles/GSO_36.0721_-79.9153_45_270.csv)

New Loadshape.GSO_36.0721_-79.9153_55_180 npts= 35040 interval=0.25 mult = (file=../../../../profiles/GSO_36.0721_-79.9153_55_180.csv)

New Loadshape.GSO_36.0721_-79.9153_45_90 npts= 35040 interval=0.25 mult = (file=../../../../profiles/GSO_36.0721_-79.9153_45_90.csv)

New Loadshape.GSO_36.0352_-79.9153_35_225 npts= 35040 interval=0.25 mult = (file=../../../../profiles/GSO_36.0352_-79.9153_35_225.csv)

New Loadshape.GSO_36.0352_-79.9153_15_225 npts= 35040 interval=0.25 mult = (file=../../../../profiles/GSO_36.0352_-79.9153_15_225.csv)

New Loadshape.GSO_36.0352_-79.9153_25_270 npts= 35040 interval=0.25 mult = (file=../../../../profiles/GSO_36.0352_-79.9153_25_270.csv)

New Loadshape.GSO_36.0352_-79.9153_45_180 npts= 35040 interval=0.25 mult = (file=../../../../profiles/GSO_36.0352_-79.9153_45_180.csv)

New Loadshape.GSO_36.0352_-79.9153_25_225 npts= 35040 interval=0.25 mult = (file=../../../../profiles/GSO_36.0352_-79.9153_25_225.csv)

New Loadshape.GSO_36.0352_-79.9153_25_180 npts= 35040 interval=0.25 mult = (file=../../../../profiles/GSO_36.0352_-79.9153_25_180.csv)

New Loadshape.GSO_36.0352_-79.9153_15_270 npts= 35040 interval=0.25 mult = (file=../../../../profiles/GSO_36.0352_-79.9153_15_270.csv)

New Loadshape.GSO_36.0352_-79.9153_45_225 npts= 35040 interval=0.25 mult = (file=../../../../profiles/GSO_36.0352_-79.9153_45_225.csv)

New Loadshape.GSO_36.0352_-79.9153_35_270 npts= 35040 interval=0.25 mult = (file=../../../../profiles/GSO_36.0352_-79.9153_35_270.csv)

New Loadshape.GSO_36.0352_-79.9153_25_135 npts= 35040 interval=0.25 mult = (file=../../../../profiles/GSO_36.0352_-79.9153_25_135.csv)

New Loadshape.GSO_36.0352_-79.9153_25_90 npts= 35040 interval=0.25 mult = (file=../../../../profiles/GSO_36.0352_-79.9153_25_90.csv)

New Loadshape.GSO_36.0352_-79.9153_35_180 npts= 35040 interval=0.25 mult = (file=../../../../profiles/GSO_36.0352_-79.9153_35_180.csv)

New Loadshape.GSO_36.0352_-79.9153_15_180 npts= 35040 interval=0.25 mult = (file=../../../../profiles/GSO_36.0352_-79.9153_15_180.csv)

New Loadshape.GSO_36.0352_-79.9153_15_90 npts= 35040 interval=0.25 mult = (file=../../../../profiles/GSO_36.0352_-79.9153_15_90.csv)

New Loadshape.GSO_36.0352_-79.9153_35_90 npts= 35040 interval=0.25 mult = (file=../../../../profiles/GSO_36.0352_-79.9153_35_90.csv)

New Loadshape.GSO_36.0721_-79.9153_55_225 npts= 35040 interval=0.25 mult = (file=../../../../profiles/GSO_36.0721_-79.9153_55_225.csv)

New Loadshape.GSO_36.0352_-79.9153_45_135 npts= 35040 interval=0.25 mult = (file=../../../../profiles/GSO_36.0352_-79.9153_45_135.csv)

New Loadshape.GSO_36.1090_-79.9153_35_135 npts= 35040 interval=0.25 mult = (file=../../../../profiles/GSO_36.1090_-79.9153_35_135.csv)

New Loadshape.GSO_36.1090_-79.9153_25_135 npts= 35040 interval=0.25 mult = (file=../../../../profiles/GSO_36.1090_-79.9153_25_135.csv)

New Loadshape.GSO_36.1090_-79.9153_15_180 npts= 35040 interval=0.25 mult = (file=../../../../profiles/GSO_36.1090_-79.9153_15_180.csv)

New Loadshape.GSO_36.0352_-79.9153_15_135 npts= 35040 interval=0.25 mult = (file=../../../../profiles/GSO_36.0352_-79.9153_15_135.csv)

New Loadshape.GSO_36.1090_-79.9153_25_90 npts= 35040 interval=0.25 mult = (file=../../../../profiles/GSO_36.1090_-79.9153_25_90.csv)

New Loadshape.GSO_36.0352_-79.9153_35_135 npts= 35040 interval=0.25 mult = (file=../../../../profiles/GSO_36.0352_-79.9153_35_135.csv)

New Loadshape.GSO_36.0352_-79.9153_45_270 npts= 35040 interval=0.25 mult = (file=../../../../profiles/GSO_36.0352_-79.9153_45_270.csv)

New Loadshape.res_kw_532_pu npts= 35040 interval=0.25 mult = (file=../../../../profiles/res_kw_532_pu.csv) qmult = (file=../../../../profiles/res_kvar_532_pu.csv)

New Loadshape.res_kw_652_pu npts= 35040 interval=0.25 mult = (file=../../../../profiles/res_kw_652_pu.csv) qmult = (file=../../../../profiles/res_kvar_652_pu.csv)

New Loadshape.res_kw_334_pu npts= 35040 interval=0.25 mult = (file=../../../../profiles/res_kw_334_pu.csv) qmult = (file=../../../../profiles/res_kvar_334_pu.csv)

New Loadshape.res_kw_39_pu npts= 35040 interval=0.25 mult = (file=../../../../profiles/res_kw_39_pu.csv) qmult = (file=../../../../profiles/res_kvar_39_pu.csv)

New Loadshape.res_kw_842_pu npts= 35040 interval=0.25 mult = (file=../../../../profiles/res_kw_842_pu.csv) qmult = (file=../../../../profiles/res_kvar_842_pu.csv)

New Loadshape.res_kw_33_pu npts= 35040 interval=0.25 mult = (file=../../../../profiles/res_kw_33_pu.csv) qmult = (file=../../../../profiles/res_kvar_33_pu.csv)

New Loadshape.res_kw_93_pu npts= 35040 interval=0.25 mult = (file=../../../../profiles/res_kw_93_pu.csv) qmult = (file=../../../../profiles/res_kvar_93_pu.csv)

New Loadshape.res_kw_1042_pu npts= 35040 interval=0.25 mult = (file=../../../../profiles/res_kw_1042_pu.csv) qmult = (file=../../../../profiles/res_kvar_1042_pu.csv)

New Loadshape.res_kw_24_pu npts= 35040 interval=0.25 mult = (file=../../../../profiles/res_kw_24_pu.csv) qmult = (file=../../../../profiles/res_kvar_24_pu.csv)

New Loadshape.res_kw_141_pu npts= 35040 interval=0.25 mult = (file=../../../../profiles/res_kw_141_pu.csv) qmult = (file=../../../../profiles/res_kvar_141_pu.csv)

New Loadshape.res_kw_512_pu npts= 35040 interval=0.25 mult = (file=../../../../profiles/res_kw_512_pu.csv) qmult = (file=../../../../profiles/res_kvar_512_pu.csv)

New Loadshape.res_kw_696_pu npts= 35040 interval=0.25 mult = (file=../../../../profiles/res_kw_696_pu.csv) qmult = (file=../../../../profiles/res_kvar_696_pu.csv)

New Loadshape.res_kw_879_pu npts= 35040 interval=0.25 mult = (file=../../../../profiles/res_kw_879_pu.csv) qmult = (file=../../../../profiles/res_kvar_879_pu.csv)

New Loadshape.res_kw_523_pu npts= 35040 interval=0.25 mult = (file=../../../../profiles/res_kw_523_pu.csv) qmult = (file=../../../../profiles/res_kvar_523_pu.csv)

New Loadshape.res_kw_1037_pu npts= 35040 interval=0.25 mult = (file=../../../../profiles/res_kw_1037_pu.csv) qmult = (file=../../../../profiles/res_kvar_1037_pu.csv)

New Loadshape.res_kw_1105_pu npts= 35040 interval=0.25 mult = (file=../../../../profiles/res_kw_1105_pu.csv) qmult = (file=../../../../profiles/res_kvar_1105_pu.csv)

New Loadshape.res_kw_1186_pu npts= 35040 interval=0.25 mult = (file=../../../../profiles/res_kw_1186_pu.csv) qmult = (file=../../../../profiles/res_kvar_1186_pu.csv)

New Loadshape.res_kw_41_pu npts= 35040 interval=0.25 mult = (file=../../../../profiles/res_kw_41_pu.csv) qmult = (file=../../../../profiles/res_kvar_41_pu.csv)

New Loadshape.res_kw_1159_pu npts= 35040 interval=0.25 mult = (file=../../../../profiles/res_kw_1159_pu.csv) qmult = (file=../../../../profiles/res_kvar_1159_pu.csv)

New Loadshape.res_kw_1067_pu npts= 35040 interval=0.25 mult = (file=../../../../profiles/res_kw_1067_pu.csv) qmult = (file=../../../../profiles/res_kvar_1067_pu.csv)

New Loadshape.res_kw_452_pu npts= 35040 interval=0.25 mult = (file=../../../../profiles/res_kw_452_pu.csv) qmult = (file=../../../../profiles/res_kvar_452_pu.csv)

New Loadshape.res_kw_829_pu npts= 35040 interval=0.25 mult = (file=../../../../profiles/res_kw_829_pu.csv) qmult = (file=../../../../profiles/res_kvar_829_pu.csv)

New Loadshape.res_kw_931_pu npts= 35040 interval=0.25 mult = (file=../../../../profiles/res_kw_931_pu.csv) qmult = (file=../../../../profiles/res_kvar_931_pu.csv)

New Loadshape.res_kw_1270_pu npts= 35040 interval=0.25 mult = (file=../../../../profiles/res_kw_1270_pu.csv) qmult = (file=../../../../profiles/res_kvar_1270_pu.csv)

New Loadshape.res_kw_825_pu npts= 35040 interval=0.25 mult = (file=../../../../profiles/res_kw_825_pu.csv) qmult = (file=../../../../profiles/res_kvar_825_pu.csv)

New Loadshape.res_kw_1115_pu npts= 35040 interval=0.25 mult = (file=../../../../profiles/res_kw_1115_pu.csv) qmult = (file=../../../../profiles/res_kvar_1115_pu.csv)

New Loadshape.res_kw_1258_pu npts= 35040 interval=0.25 mult = (file=../../../../profiles/res_kw_1258_pu.csv) qmult = (file=../../../../profiles/res_kvar_1258_pu.csv)

New Loadshape.res_kw_772_pu npts= 35040 interval=0.25 mult = (file=../../../../profiles/res_kw_772_pu.csv) qmult = (file=../../../../profiles/res_kvar_772_pu.csv)

New Loadshape.res_kw_453_pu npts= 35040 interval=0.25 mult = (file=../../../../profiles/res_kw_453_pu.csv) qmult = (file=../../../../profiles/res_kvar_453_pu.csv)

New Loadshape.res_kw_1160_pu npts= 35040 interval=0.25 mult = (file=../../../../profiles/res_kw_1160_pu.csv) qmult = (file=../../../../profiles/res_kvar_1160_pu.csv)

New Loadshape.res_kw_1220_pu npts= 35040 interval=0.25 mult = (file=../../../../profiles/res_kw_1220_pu.csv) qmult = (file=../../../../profiles/res_kvar_1220_pu.csv)

New Loadshape.res_kw_431_pu npts= 35040 interval=0.25 mult = (file=../../../../profiles/res_kw_431_pu.csv) qmult = (file=../../../../profiles/res_kvar_431_pu.csv)

New Loadshape.res_kw_621_pu npts= 35040 interval=0.25 mult = (file=../../../../profiles/res_kw_621_pu.csv) qmult = (file=../../../../profiles/res_kvar_621_pu.csv)

New Loadshape.res_kw_670_pu npts= 35040 interval=0.25 mult = (file=../../../../profiles/res_kw_670_pu.csv) qmult = (file=../../../../profiles/res_kvar_670_pu.csv)

New Loadshape.res_kw_968_pu npts= 35040 interval=0.25 mult = (file=../../../../profiles/res_kw_968_pu.csv) qmult = (file=../../../../profiles/res_kvar_968_pu.csv)

New Loadshape.res_kw_675_pu npts= 35040 interval=0.25 mult = (file=../../../../profiles/res_kw_675_pu.csv) qmult = (file=../../../../profiles/res_kvar_675_pu.csv)

New Loadshape.res_kw_280_pu npts= 35040 interval=0.25 mult = (file=../../../../profiles/res_kw_280_pu.csv) qmult = (file=../../../../profiles/res_kvar_280_pu.csv)

New Loadshape.res_kw_548_pu npts= 35040 interval=0.25 mult = (file=../../../../profiles/res_kw_548_pu.csv) qmult = (file=../../../../profiles/res_kvar_548_pu.csv)

New Loadshape.res_kw_1113_pu npts= 35040 interval=0.25 mult = (file=../../../../profiles/res_kw_1113_pu.csv) qmult = (file=../../../../profiles/res_kvar_1113_pu.csv)

New Loadshape.res_kw_1041_pu npts= 35040 interval=0.25 mult = (file=../../../../profiles/res_kw_1041_pu.csv) qmult = (file=../../../../profiles/res_kvar_1041_pu.csv)

New Loadshape.res_kw_599_pu npts= 35040 interval=0.25 mult = (file=../../../../profiles/res_kw_599_pu.csv) qmult = (file=../../../../profiles/res_kvar_599_pu.csv)

New Loadshape.res_kw_278_pu npts= 35040 interval=0.25 mult = (file=../../../../profiles/res_kw_278_pu.csv) qmult = (file=../../../../profiles/res_kvar_278_pu.csv)

New Loadshape.res_kw_695_pu npts= 35040 interval=0.25 mult = (file=../../../../profiles/res_kw_695_pu.csv) qmult = (file=../../../../profiles/res_kvar_695_pu.csv)

New Loadshape.res_kw_560_pu npts= 35040 interval=0.25 mult = (file=../../../../profiles/res_kw_560_pu.csv) qmult = (file=../../../../profiles/res_kvar_560_pu.csv)

New Loadshape.res_kw_454_pu npts= 35040 interval=0.25 mult = (file=../../../../profiles/res_kw_454_pu.csv) qmult = (file=../../../../profiles/res_kvar_454_pu.csv)

New Loadshape.res_kw_4_pu npts= 35040 interval=0.25 mult = (file=../../../../profiles/res_kw_4_pu.csv) qmult = (file=../../../../profiles/res_kvar_4_pu.csv)

New Loadshape.res_kw_517_pu npts= 35040 interval=0.25 mult = (file=../../../../profiles/res_kw_517_pu.csv) qmult = (file=../../../../profiles/res_kvar_517_pu.csv)

New Loadshape.res_kw_411_pu npts= 35040 interval=0.25 mult = (file=../../../../profiles/res_kw_411_pu.csv) qmult = (file=../../../../profiles/res_kvar_411_pu.csv)

New Loadshape.res_kw_128_pu npts= 35040 interval=0.25 mult = (file=../../../../profiles/res_kw_128_pu.csv) qmult = (file=../../../../profiles/res_kvar_128_pu.csv)

New Loadshape.res_kw_1205_pu npts= 35040 interval=0.25 mult = (file=../../../../profiles/res_kw_1205_pu.csv) qmult = (file=../../../../profiles/res_kvar_1205_pu.csv)

New Loadshape.res_kw_1083_pu npts= 35040 interval=0.25 mult = (file=../../../../profiles/res_kw_1083_pu.csv) qmult = (file=../../../../profiles/res_kvar_1083_pu.csv)

New Loadshape.res_kw_707_pu npts= 35040 interval=0.25 mult = (file=../../../../profiles/res_kw_707_pu.csv) qmult = (file=../../../../profiles/res_kvar_707_pu.csv)

New Loadshape.res_kw_1253_pu npts= 35040 interval=0.25 mult = (file=../../../../profiles/res_kw_1253_pu.csv) qmult = (file=../../../../profiles/res_kvar_1253_pu.csv)

New Loadshape.res_kw_30_pu npts= 35040 interval=0.25 mult = (file=../../../../profiles/res_kw_30_pu.csv) qmult = (file=../../../../profiles/res_kvar_30_pu.csv)

New Loadshape.res_kw_409_pu npts= 35040 interval=0.25 mult = (file=../../../../profiles/res_kw_409_pu.csv) qmult = (file=../../../../profiles/res_kvar_409_pu.csv)

New Loadshape.res_kw_40_pu npts= 35040 interval=0.25 mult = (file=../../../../profiles/res_kw_40_pu.csv) qmult = (file=../../../../profiles/res_kvar_40_pu.csv)

New Loadshape.res_kw_205_pu npts= 35040 interval=0.25 mult = (file=../../../../profiles/res_kw_205_pu.csv) qmult = (file=../../../../profiles/res_kvar_205_pu.csv)

New Loadshape.res_kw_691_pu npts= 35040 interval=0.25 mult = (file=../../../../profiles/res_kw_691_pu.csv) qmult = (file=../../../../profiles/res_kvar_691_pu.csv)

New Loadshape.res_kw_1023_pu npts= 35040 interval=0.25 mult = (file=../../../../profiles/res_kw_1023_pu.csv) qmult = (file=../../../../profiles/res_kvar_1023_pu.csv)

New Loadshape.res_kw_504_pu npts= 35040 interval=0.25 mult = (file=../../../../profiles/res_kw_504_pu.csv) qmult = (file=../../../../profiles/res_kvar_504_pu.csv)

New Loadshape.res_kw_1070_pu npts= 35040 interval=0.25 mult = (file=../../../../profiles/res_kw_1070_pu.csv) qmult = (file=../../../../profiles/res_kvar_1070_pu.csv)

New Loadshape.res_kw_250_pu npts= 35040 interval=0.25 mult = (file=../../../../profiles/res_kw_250_pu.csv) qmult = (file=../../../../profiles/res_kvar_250_pu.csv)

New Loadshape.res_kw_292_pu npts= 35040 interval=0.25 mult = (file=../../../../profiles/res_kw_292_pu.csv) qmult = (file=../../../../profiles/res_kvar_292_pu.csv)

New Loadshape.res_kw_407_pu npts= 35040 interval=0.25 mult = (file=../../../../profiles/res_kw_407_pu.csv) qmult = (file=../../../../profiles/res_kvar_407_pu.csv)

New Loadshape.res_kw_421_pu npts= 35040 interval=0.25 mult = (file=../../../../profiles/res_kw_421_pu.csv) qmult = (file=../../../../profiles/res_kvar_421_pu.csv)

New Loadshape.res_kw_46_pu npts= 35040 interval=0.25 mult = (file=../../../../profiles/res_kw_46_pu.csv) qmult = (file=../../../../profiles/res_kvar_46_pu.csv)

New Loadshape.res_kw_1036_pu npts= 35040 interval=0.25 mult = (file=../../../../profiles/res_kw_1036_pu.csv) qmult = (file=../../../../profiles/res_kvar_1036_pu.csv)

New Loadshape.res_kw_1094_pu npts= 35040 interval=0.25 mult = (file=../../../../profiles/res_kw_1094_pu.csv) qmult = (file=../../../../profiles/res_kvar_1094_pu.csv)

New Loadshape.res_kw_203_pu npts= 35040 interval=0.25 mult = (file=../../../../profiles/res_kw_203_pu.csv) qmult = (file=../../../../profiles/res_kvar_203_pu.csv)

New Loadshape.res_kw_780_pu npts= 35040 interval=0.25 mult = (file=../../../../profiles/res_kw_780_pu.csv) qmult = (file=../../../../profiles/res_kvar_780_pu.csv)

New Loadshape.res_kw_645_pu npts= 35040 interval=0.25 mult = (file=../../../../profiles/res_kw_645_pu.csv) qmult = (file=../../../../profiles/res_kvar_645_pu.csv)

New Loadshape.res_kw_211_pu npts= 35040 interval=0.25 mult = (file=../../../../profiles/res_kw_211_pu.csv) qmult = (file=../../../../profiles/res_kvar_211_pu.csv)

New Loadshape.res_kw_616_pu npts= 35040 interval=0.25 mult = (file=../../../../profiles/res_kw_616_pu.csv) qmult = (file=../../../../profiles/res_kvar_616_pu.csv)

New Loadshape.res_kw_263_pu npts= 35040 interval=0.25 mult = (file=../../../../profiles/res_kw_263_pu.csv) qmult = (file=../../../../profiles/res_kvar_263_pu.csv)

New Loadshape.res_kw_283_pu npts= 35040 interval=0.25 mult = (file=../../../../profiles/res_kw_283_pu.csv) qmult = (file=../../../../profiles/res_kvar_283_pu.csv)

New Loadshape.res_kw_664_pu npts= 35040 interval=0.25 mult = (file=../../../../profiles/res_kw_664_pu.csv) qmult = (file=../../../../profiles/res_kvar_664_pu.csv)

New Loadshape.res_kw_863_pu npts= 35040 interval=0.25 mult = (file=../../../../profiles/res_kw_863_pu.csv) qmult = (file=../../../../profiles/res_kvar_863_pu.csv)

New Loadshape.res_kw_1228_pu npts= 35040 interval=0.25 mult = (file=../../../../profiles/res_kw_1228_pu.csv) qmult = (file=../../../../profiles/res_kvar_1228_pu.csv)

New Loadshape.res_kw_1190_pu npts= 35040 interval=0.25 mult = (file=../../../../profiles/res_kw_1190_pu.csv) qmult = (file=../../../../profiles/res_kvar_1190_pu.csv)

New Loadshape.res_kw_861_pu npts= 35040 interval=0.25 mult = (file=../../../../profiles/res_kw_861_pu.csv) qmult = (file=../../../../profiles/res_kvar_861_pu.csv)

New Loadshape.res_kw_822_pu npts= 35040 interval=0.25 mult = (file=../../../../profiles/res_kw_822_pu.csv) qmult = (file=../../../../profiles/res_kvar_822_pu.csv)

New Loadshape.res_kw_1283_pu npts= 35040 interval=0.25 mult = (file=../../../../profiles/res_kw_1283_pu.csv) qmult = (file=../../../../profiles/res_kvar_1283_pu.csv)

New Loadshape.res_kw_710_pu npts= 35040 interval=0.25 mult = (file=../../../../profiles/res_kw_710_pu.csv) qmult = (file=../../../../profiles/res_kvar_710_pu.csv)

New Loadshape.res_kw_549_pu npts= 35040 interval=0.25 mult = (file=../../../../profiles/res_kw_549_pu.csv) qmult = (file=../../../../profiles/res_kvar_549_pu.csv)

New Loadshape.res_kw_1256_pu npts= 35040 interval=0.25 mult = (file=../../../../profiles/res_kw_1256_pu.csv) qmult = (file=../../../../profiles/res_kvar_1256_pu.csv)

New Loadshape.res_kw_579_pu npts= 35040 interval=0.25 mult = (file=../../../../profiles/res_kw_579_pu.csv) qmult = (file=../../../../profiles/res_kvar_579_pu.csv)

New Loadshape.res_kw_1267_pu npts= 35040 interval=0.25 mult = (file=../../../../profiles/res_kw_1267_pu.csv) qmult = (file=../../../../profiles/res_kvar_1267_pu.csv)

New Loadshape.res_kw_894_pu npts= 35040 interval=0.25 mult = (file=../../../../profiles/res_kw_894_pu.csv) qmult = (file=../../../../profiles/res_kvar_894_pu.csv)

New Loadshape.res_kw_898_pu npts= 35040 interval=0.25 mult = (file=../../../../profiles/res_kw_898_pu.csv) qmult = (file=../../../../profiles/res_kvar_898_pu.csv)

New Loadshape.res_kw_1149_pu npts= 35040 interval=0.25 mult = (file=../../../../profiles/res_kw_1149_pu.csv) qmult = (file=../../../../profiles/res_kvar_1149_pu.csv)

New Loadshape.res_kw_1117_pu npts= 35040 interval=0.25 mult = (file=../../../../profiles/res_kw_1117_pu.csv) qmult = (file=../../../../profiles/res_kvar_1117_pu.csv)

New Loadshape.res_kw_1187_pu npts= 35040 interval=0.25 mult = (file=../../../../profiles/res_kw_1187_pu.csv) qmult = (file=../../../../profiles/res_kvar_1187_pu.csv)

New Loadshape.res_kw_267_pu npts= 35040 interval=0.25 mult = (file=../../../../profiles/res_kw_267_pu.csv) qmult = (file=../../../../profiles/res_kvar_267_pu.csv)

New Loadshape.res_kw_536_pu npts= 35040 interval=0.25 mult = (file=../../../../profiles/res_kw_536_pu.csv) qmult = (file=../../../../profiles/res_kvar_536_pu.csv)

New Loadshape.res_kw_1108_pu npts= 35040 interval=0.25 mult = (file=../../../../profiles/res_kw_1108_pu.csv) qmult = (file=../../../../profiles/res_kvar_1108_pu.csv)

New Loadshape.res_kw_20_pu npts= 35040 interval=0.25 mult = (file=../../../../profiles/res_kw_20_pu.csv) qmult = (file=../../../../profiles/res_kvar_20_pu.csv)

New Loadshape.res_kw_75_pu npts= 35040 interval=0.25 mult = (file=../../../../profiles/res_kw_75_pu.csv) qmult = (file=../../../../profiles/res_kvar_75_pu.csv)

New Loadshape.res_kw_626_pu npts= 35040 interval=0.25 mult = (file=../../../../profiles/res_kw_626_pu.csv) qmult = (file=../../../../profiles/res_kvar_626_pu.csv)

New Loadshape.res_kw_401_pu npts= 35040 interval=0.25 mult = (file=../../../../profiles/res_kw_401_pu.csv) qmult = (file=../../../../profiles/res_kvar_401_pu.csv)

New Loadshape.res_kw_624_pu npts= 35040 interval=0.25 mult = (file=../../../../profiles/res_kw_624_pu.csv) qmult = (file=../../../../profiles/res_kvar_624_pu.csv)

New Loadshape.res_kw_796_pu npts= 35040 interval=0.25 mult = (file=../../../../profiles/res_kw_796_pu.csv) qmult = (file=../../../../profiles/res_kvar_796_pu.csv)

New Loadshape.res_kw_184_pu npts= 35040 interval=0.25 mult = (file=../../../../profiles/res_kw_184_pu.csv) qmult = (file=../../../../profiles/res_kvar_184_pu.csv)

New Loadshape.res_kw_1138_pu npts= 35040 interval=0.25 mult = (file=../../../../profiles/res_kw_1138_pu.csv) qmult = (file=../../../../profiles/res_kvar_1138_pu.csv)

New Loadshape.res_kw_843_pu npts= 35040 interval=0.25 mult = (file=../../../../profiles/res_kw_843_pu.csv) qmult = (file=../../../../profiles/res_kvar_843_pu.csv)

New Loadshape.res_kw_162_pu npts= 35040 interval=0.25 mult = (file=../../../../profiles/res_kw_162_pu.csv) qmult = (file=../../../../profiles/res_kvar_162_pu.csv)

New Loadshape.res_kw_1273_pu npts= 35040 interval=0.25 mult = (file=../../../../profiles/res_kw_1273_pu.csv) qmult = (file=../../../../profiles/res_kvar_1273_pu.csv)

New Loadshape.res_kw_206_pu npts= 35040 interval=0.25 mult = (file=../../../../profiles/res_kw_206_pu.csv) qmult = (file=../../../../profiles/res_kvar_206_pu.csv)

New Loadshape.res_kw_1248_pu npts= 35040 interval=0.25 mult = (file=../../../../profiles/res_kw_1248_pu.csv) qmult = (file=../../../../profiles/res_kvar_1248_pu.csv)

New Loadshape.res_kw_298_pu npts= 35040 interval=0.25 mult = (file=../../../../profiles/res_kw_298_pu.csv) qmult = (file=../../../../profiles/res_kvar_298_pu.csv)

New Loadshape.res_kw_63_pu npts= 35040 interval=0.25 mult = (file=../../../../profiles/res_kw_63_pu.csv) qmult = (file=../../../../profiles/res_kvar_63_pu.csv)

New Loadshape.res_kw_282_pu npts= 35040 interval=0.25 mult = (file=../../../../profiles/res_kw_282_pu.csv) qmult = (file=../../../../profiles/res_kvar_282_pu.csv)

New Loadshape.res_kw_752_pu npts= 35040 interval=0.25 mult = (file=../../../../profiles/res_kw_752_pu.csv) qmult = (file=../../../../profiles/res_kvar_752_pu.csv)

New Loadshape.res_kw_1261_pu npts= 35040 interval=0.25 mult = (file=../../../../profiles/res_kw_1261_pu.csv) qmult = (file=../../../../profiles/res_kvar_1261_pu.csv)

New Loadshape.res_kw_1189_pu npts= 35040 interval=0.25 mult = (file=../../../../profiles/res_kw_1189_pu.csv) qmult = (file=../../../../profiles/res_kvar_1189_pu.csv)

New Loadshape.res_kw_123_pu npts= 35040 interval=0.25 mult = (file=../../../../profiles/res_kw_123_pu.csv) qmult = (file=../../../../profiles/res_kvar_123_pu.csv)

New Loadshape.res_kw_795_pu npts= 35040 interval=0.25 mult = (file=../../../../profiles/res_kw_795_pu.csv) qmult = (file=../../../../profiles/res_kvar_795_pu.csv)

New Loadshape.res_kw_905_pu npts= 35040 interval=0.25 mult = (file=../../../../profiles/res_kw_905_pu.csv) qmult = (file=../../../../profiles/res_kvar_905_pu.csv)

New Loadshape.res_kw_846_pu npts= 35040 interval=0.25 mult = (file=../../../../profiles/res_kw_846_pu.csv) qmult = (file=../../../../profiles/res_kvar_846_pu.csv)

New Loadshape.res_kw_1157_pu npts= 35040 interval=0.25 mult = (file=../../../../profiles/res_kw_1157_pu.csv) qmult = (file=../../../../profiles/res_kvar_1157_pu.csv)

New Loadshape.res_kw_261_pu npts= 35040 interval=0.25 mult = (file=../../../../profiles/res_kw_261_pu.csv) qmult = (file=../../../../profiles/res_kvar_261_pu.csv)

New Loadshape.res_kw_229_pu npts= 35040 interval=0.25 mult = (file=../../../../profiles/res_kw_229_pu.csv) qmult = (file=../../../../profiles/res_kvar_229_pu.csv)

New Loadshape.res_kw_455_pu npts= 35040 interval=0.25 mult = (file=../../../../profiles/res_kw_455_pu.csv) qmult = (file=../../../../profiles/res_kvar_455_pu.csv)

New Loadshape.res_kw_932_pu npts= 35040 interval=0.25 mult = (file=../../../../profiles/res_kw_932_pu.csv) qmult = (file=../../../../profiles/res_kvar_932_pu.csv)

New Loadshape.res_kw_101_pu npts= 35040 interval=0.25 mult = (file=../../../../profiles/res_kw_101_pu.csv) qmult = (file=../../../../profiles/res_kvar_101_pu.csv)

New Loadshape.res_kw_450_pu npts= 35040 interval=0.25 mult = (file=../../../../profiles/res_kw_450_pu.csv) qmult = (file=../../../../profiles/res_kvar_450_pu.csv)

New Loadshape.res_kw_464_pu npts= 35040 interval=0.25 mult = (file=../../../../profiles/res_kw_464_pu.csv) qmult = (file=../../../../profiles/res_kvar_464_pu.csv)

New Loadshape.res_kw_225_pu npts= 35040 interval=0.25 mult = (file=../../../../profiles/res_kw_225_pu.csv) qmult = (file=../../../../profiles/res_kvar_225_pu.csv)

New Loadshape.res_kw_314_pu npts= 35040 interval=0.25 mult = (file=../../../../profiles/res_kw_314_pu.csv) qmult = (file=../../../../profiles/res_kvar_314_pu.csv)

New Loadshape.res_kw_317_pu npts= 35040 interval=0.25 mult = (file=../../../../profiles/res_kw_317_pu.csv) qmult = (file=../../../../profiles/res_kvar_317_pu.csv)

New Loadshape.res_kw_97_pu npts= 35040 interval=0.25 mult = (file=../../../../profiles/res_kw_97_pu.csv) qmult = (file=../../../../profiles/res_kvar_97_pu.csv)

New Loadshape.res_kw_271_pu npts= 35040 interval=0.25 mult = (file=../../../../profiles/res_kw_271_pu.csv) qmult = (file=../../../../profiles/res_kvar_271_pu.csv)

New Loadshape.res_kw_653_pu npts= 35040 interval=0.25 mult = (file=../../../../profiles/res_kw_653_pu.csv) qmult = (file=../../../../profiles/res_kvar_653_pu.csv)

New Loadshape.res_kw_552_pu npts= 35040 interval=0.25 mult = (file=../../../../profiles/res_kw_552_pu.csv) qmult = (file=../../../../profiles/res_kvar_552_pu.csv)

New Loadshape.res_kw_380_pu npts= 35040 interval=0.25 mult = (file=../../../../profiles/res_kw_380_pu.csv) qmult = (file=../../../../profiles/res_kvar_380_pu.csv)

New Loadshape.res_kw_231_pu npts= 35040 interval=0.25 mult = (file=../../../../profiles/res_kw_231_pu.csv) qmult = (file=../../../../profiles/res_kvar_231_pu.csv)

New Loadshape.res_kw_1104_pu npts= 35040 interval=0.25 mult = (file=../../../../profiles/res_kw_1104_pu.csv) qmult = (file=../../../../profiles/res_kvar_1104_pu.csv)

New Loadshape.res_kw_53_pu npts= 35040 interval=0.25 mult = (file=../../../../profiles/res_kw_53_pu.csv) qmult = (file=../../../../profiles/res_kvar_53_pu.csv)

New Loadshape.res_kw_461_pu npts= 35040 interval=0.25 mult = (file=../../../../profiles/res_kw_461_pu.csv) qmult = (file=../../../../profiles/res_kvar_461_pu.csv)

New Loadshape.res_kw_959_pu npts= 35040 interval=0.25 mult = (file=../../../../profiles/res_kw_959_pu.csv) qmult = (file=../../../../profiles/res_kvar_959_pu.csv)

New Loadshape.res_kw_327_pu npts= 35040 interval=0.25 mult = (file=../../../../profiles/res_kw_327_pu.csv) qmult = (file=../../../../profiles/res_kvar_327_pu.csv)

New Loadshape.res_kw_630_pu npts= 35040 interval=0.25 mult = (file=../../../../profiles/res_kw_630_pu.csv) qmult = (file=../../../../profiles/res_kvar_630_pu.csv)
