New Load.load_p1ulv214_1 conn=wye bus1=p1ulv214.1 kV=0.12 Vminpu=0.8 Vmaxpu=1.2 model=1 kW=4.081735511976485 kvar=0.9882394625849078 Phases=1 yearly=com_kw_14650_pu

New Load.load_p1ulv214_2 conn=wye bus1=p1ulv214.2 kV=0.12 Vminpu=0.8 Vmaxpu=1.2 model=1 kW=4.081735511976485 kvar=0.9882394625849078 Phases=1 yearly=com_kw_14650_pu

New Load.load_p1ulv215_1 conn=wye bus1=p1ulv215.1 kV=0.12 Vminpu=0.8 Vmaxpu=1.2 model=1 kW=4.081735511976485 kvar=0.9882394625849078 Phases=1 yearly=com_kw_14650_pu

New Load.load_p1ulv215_2 conn=wye bus1=p1ulv215.2 kV=0.12 Vminpu=0.8 Vmaxpu=1.2 model=1 kW=4.081735511976485 kvar=0.9882394625849078 Phases=1 yearly=com_kw_14650_pu

New Load.load_p1ulv216_1 conn=wye bus1=p1ulv216.1 kV=0.12 Vminpu=0.8 Vmaxpu=1.2 model=1 kW=4.081735511976485 kvar=0.9882394625849078 Phases=1 yearly=com_kw_14650_pu

New Load.load_p1ulv216_2 conn=wye bus1=p1ulv216.2 kV=0.12 Vminpu=0.8 Vmaxpu=1.2 model=1 kW=4.081735511976485 kvar=0.9882394625849078 Phases=1 yearly=com_kw_14650_pu

New Load.load_p1ulv217_1 conn=wye bus1=p1ulv217.1 kV=0.12 Vminpu=0.8 Vmaxpu=1.2 model=1 kW=13.251431311430247 kvar=0.1493407165487586 Phases=1 yearly=com_kw_14976_pu

New Load.load_p1ulv217_2 conn=wye bus1=p1ulv217.2 kV=0.12 Vminpu=0.8 Vmaxpu=1.2 model=1 kW=13.251431311430247 kvar=0.1493407165487586 Phases=1 yearly=com_kw_14976_pu

New Load.load_p1ulv218_1 conn=wye bus1=p1ulv218.1 kV=0.12 Vminpu=0.8 Vmaxpu=1.2 model=1 kW=4.081735511976485 kvar=0.9882394625849078 Phases=1 yearly=com_kw_14650_pu

New Load.load_p1ulv218_2 conn=wye bus1=p1ulv218.2 kV=0.12 Vminpu=0.8 Vmaxpu=1.2 model=1 kW=4.081735511976485 kvar=0.9882394625849078 Phases=1 yearly=com_kw_14650_pu

New Load.load_p1ulv219_1 conn=wye bus1=p1ulv219.1 kV=0.12 Vminpu=0.8 Vmaxpu=1.2 model=1 kW=4.081735511976485 kvar=0.9882394625849078 Phases=1 yearly=com_kw_14650_pu

New Load.load_p1ulv219_2 conn=wye bus1=p1ulv219.2 kV=0.12 Vminpu=0.8 Vmaxpu=1.2 model=1 kW=4.081735511976485 kvar=0.9882394625849078 Phases=1 yearly=com_kw_14650_pu

New Load.load_p1ulv220_1 conn=wye bus1=p1ulv220.1 kV=0.12 Vminpu=0.8 Vmaxpu=1.2 model=1 kW=13.251431311430247 kvar=0.1493407165487586 Phases=1 yearly=com_kw_14976_pu

New Load.load_p1ulv220_2 conn=wye bus1=p1ulv220.2 kV=0.12 Vminpu=0.8 Vmaxpu=1.2 model=1 kW=13.251431311430247 kvar=0.1493407165487586 Phases=1 yearly=com_kw_14976_pu

New Load.load_p1ulv221_1 conn=wye bus1=p1ulv221.1 kV=0.12 Vminpu=0.8 Vmaxpu=1.2 model=1 kW=5.326168943521982 kvar=0.2063776929599704 Phases=1 yearly=com_kw_14741_pu

New Load.load_p1ulv221_2 conn=wye bus1=p1ulv221.2 kV=0.12 Vminpu=0.8 Vmaxpu=1.2 model=1 kW=5.326168943521982 kvar=0.2063776929599704 Phases=1 yearly=com_kw_14741_pu

New Load.load_p1ulv222_1 conn=wye bus1=p1ulv222.1 kV=0.12 Vminpu=0.8 Vmaxpu=1.2 model=1 kW=2.7461665936360093 kvar=0.7968618446715426 Phases=1 yearly=com_kw_13088_pu

New Load.load_p1ulv222_2 conn=wye bus1=p1ulv222.2 kV=0.12 Vminpu=0.8 Vmaxpu=1.2 model=1 kW=2.7461665936360093 kvar=0.7968618446715426 Phases=1 yearly=com_kw_13088_pu

New Load.load_p1ulv223_1 conn=wye bus1=p1ulv223.1 kV=0.12 Vminpu=0.8 Vmaxpu=1.2 model=1 kW=4.081735511976485 kvar=0.9882394625849078 Phases=1 yearly=com_kw_14650_pu

New Load.load_p1ulv223_2 conn=wye bus1=p1ulv223.2 kV=0.12 Vminpu=0.8 Vmaxpu=1.2 model=1 kW=4.081735511976485 kvar=0.9882394625849078 Phases=1 yearly=com_kw_14650_pu

New Load.load_p1ulv224_1 conn=wye bus1=p1ulv224.1 kV=0.12 Vminpu=0.8 Vmaxpu=1.2 model=1 kW=3.0721844660900577 kvar=0.7060482494440881 Phases=1 yearly=com_kw_13303_pu

New Load.load_p1ulv224_2 conn=wye bus1=p1ulv224.2 kV=0.12 Vminpu=0.8 Vmaxpu=1.2 model=1 kW=3.0721844660900577 kvar=0.7060482494440881 Phases=1 yearly=com_kw_13303_pu

New Load.load_p1ulv225_1 conn=wye bus1=p1ulv225.1 kV=0.12 Vminpu=0.8 Vmaxpu=1.2 model=1 kW=4.081735511976485 kvar=0.9882394625849078 Phases=1 yearly=com_kw_14650_pu

New Load.load_p1ulv225_2 conn=wye bus1=p1ulv225.2 kV=0.12 Vminpu=0.8 Vmaxpu=1.2 model=1 kW=4.081735511976485 kvar=0.9882394625849078 Phases=1 yearly=com_kw_14650_pu

New Load.load_p1ulv226_1 conn=wye bus1=p1ulv226.1 kV=0.12 Vminpu=0.8 Vmaxpu=1.2 model=1 kW=13.251431311430247 kvar=0.1493407165487586 Phases=1 yearly=com_kw_14976_pu

New Load.load_p1ulv226_2 conn=wye bus1=p1ulv226.2 kV=0.12 Vminpu=0.8 Vmaxpu=1.2 model=1 kW=13.251431311430247 kvar=0.1493407165487586 Phases=1 yearly=com_kw_14976_pu

New Load.load_p1ulv227_1 conn=wye bus1=p1ulv227.1 kV=0.12 Vminpu=0.8 Vmaxpu=1.2 model=1 kW=2.0380250144225394 kvar=0.5847764991219453 Phases=1 yearly=com_kw_15124_pu

New Load.load_p1ulv227_2 conn=wye bus1=p1ulv227.2 kV=0.12 Vminpu=0.8 Vmaxpu=1.2 model=1 kW=2.0380250144225394 kvar=0.5847764991219453 Phases=1 yearly=com_kw_15124_pu

New Load.load_p1ulv228_1 conn=wye bus1=p1ulv228.1 kV=0.12 Vminpu=0.8 Vmaxpu=1.2 model=1 kW=1.8801200674575587 kvar=0.53962653273889 Phases=1 yearly=com_kw_13578_pu

New Load.load_p1ulv228_2 conn=wye bus1=p1ulv228.2 kV=0.12 Vminpu=0.8 Vmaxpu=1.2 model=1 kW=1.8801200674575587 kvar=0.53962653273889 Phases=1 yearly=com_kw_13578_pu

New Load.load_p1ulv229_1 conn=wye bus1=p1ulv229.1 kV=0.12 Vminpu=0.8 Vmaxpu=1.2 model=1 kW=13.251431311430247 kvar=0.1493407165487586 Phases=1 yearly=com_kw_14976_pu

New Load.load_p1ulv229_2 conn=wye bus1=p1ulv229.2 kV=0.12 Vminpu=0.8 Vmaxpu=1.2 model=1 kW=13.251431311430247 kvar=0.1493407165487586 Phases=1 yearly=com_kw_14976_pu

New Load.load_p1ulv230_1 conn=wye bus1=p1ulv230.1 kV=0.12 Vminpu=0.8 Vmaxpu=1.2 model=1 kW=4.857616015471129 kvar=0.2397306111492685 Phases=1 yearly=com_kw_14883_pu

New Load.load_p1ulv230_2 conn=wye bus1=p1ulv230.2 kV=0.12 Vminpu=0.8 Vmaxpu=1.2 model=1 kW=4.857616015471129 kvar=0.2397306111492685 Phases=1 yearly=com_kw_14883_pu

New Load.load_p1ulv231_1 conn=wye bus1=p1ulv231.1 kV=0.12 Vminpu=0.8 Vmaxpu=1.2 model=1 kW=2.106221163205376 kvar=0.5551261969742401 Phases=1 yearly=com_kw_13342_pu

New Load.load_p1ulv231_2 conn=wye bus1=p1ulv231.2 kV=0.12 Vminpu=0.8 Vmaxpu=1.2 model=1 kW=2.106221163205376 kvar=0.5551261969742401 Phases=1 yearly=com_kw_13342_pu

New Load.load_p1ulv232_1 conn=wye bus1=p1ulv232.1 kV=0.12 Vminpu=0.8 Vmaxpu=1.2 model=1 kW=2.106221163205376 kvar=0.5551261969742401 Phases=1 yearly=com_kw_13342_pu

New Load.load_p1ulv232_2 conn=wye bus1=p1ulv232.2 kV=0.12 Vminpu=0.8 Vmaxpu=1.2 model=1 kW=2.106221163205376 kvar=0.5551261969742401 Phases=1 yearly=com_kw_13342_pu

New Load.load_p1ulv233_1 conn=wye bus1=p1ulv233.1 kV=0.12 Vminpu=0.8 Vmaxpu=1.2 model=1 kW=13.251431311430247 kvar=0.1493407165487586 Phases=1 yearly=com_kw_14976_pu

New Load.load_p1ulv233_2 conn=wye bus1=p1ulv233.2 kV=0.12 Vminpu=0.8 Vmaxpu=1.2 model=1 kW=13.251431311430247 kvar=0.1493407165487586 Phases=1 yearly=com_kw_14976_pu

New Load.load_p1ulv234_1 conn=wye bus1=p1ulv234.1 kV=0.12 Vminpu=0.8 Vmaxpu=1.2 model=1 kW=2.252586941983099 kvar=1.0135983600233158 Phases=1 yearly=res_kw_853_pu

New Load.load_p1ulv234_2 conn=wye bus1=p1ulv234.2 kV=0.12 Vminpu=0.8 Vmaxpu=1.2 model=1 kW=2.252586941983099 kvar=1.0135983600233158 Phases=1 yearly=res_kw_853_pu

New Load.load_p1ulv235_1 conn=wye bus1=p1ulv235.1 kV=0.12 Vminpu=0.8 Vmaxpu=1.2 model=1 kW=2.252586941983099 kvar=1.0135983600233158 Phases=1 yearly=res_kw_853_pu

New Load.load_p1ulv235_2 conn=wye bus1=p1ulv235.2 kV=0.12 Vminpu=0.8 Vmaxpu=1.2 model=1 kW=2.252586941983099 kvar=1.0135983600233158 Phases=1 yearly=res_kw_853_pu

New Load.load_p1ulv236_1 conn=wye bus1=p1ulv236.1 kV=0.12 Vminpu=0.8 Vmaxpu=1.2 model=1 kW=13.251431311430247 kvar=0.1493407165487586 Phases=1 yearly=com_kw_14976_pu

New Load.load_p1ulv236_2 conn=wye bus1=p1ulv236.2 kV=0.12 Vminpu=0.8 Vmaxpu=1.2 model=1 kW=13.251431311430247 kvar=0.1493407165487586 Phases=1 yearly=com_kw_14976_pu

New Load.load_p1ulv237_1 conn=wye bus1=p1ulv237.1 kV=0.12 Vminpu=0.8 Vmaxpu=1.2 model=1 kW=3.0721844660900577 kvar=0.7060482494440881 Phases=1 yearly=com_kw_13303_pu

New Load.load_p1ulv237_2 conn=wye bus1=p1ulv237.2 kV=0.12 Vminpu=0.8 Vmaxpu=1.2 model=1 kW=3.0721844660900577 kvar=0.7060482494440881 Phases=1 yearly=com_kw_13303_pu

New Load.load_p1ulv238_1 conn=wye bus1=p1ulv238.1 kV=0.12 Vminpu=0.8 Vmaxpu=1.2 model=1 kW=13.251431311430247 kvar=0.1493407165487586 Phases=1 yearly=com_kw_14976_pu

New Load.load_p1ulv238_2 conn=wye bus1=p1ulv238.2 kV=0.12 Vminpu=0.8 Vmaxpu=1.2 model=1 kW=13.251431311430247 kvar=0.1493407165487586 Phases=1 yearly=com_kw_14976_pu

New Load.load_p1ulv239_1 conn=wye bus1=p1ulv238.1 kV=0.12 Vminpu=0.8 Vmaxpu=1.2 model=1 kW=3.0721844660900577 kvar=0.7060482494440881 Phases=1 yearly=com_kw_13303_pu

New Load.load_p1ulv239_2 conn=wye bus1=p1ulv238.2 kV=0.12 Vminpu=0.8 Vmaxpu=1.2 model=1 kW=3.0721844660900577 kvar=0.7060482494440881 Phases=1 yearly=com_kw_13303_pu

New Load.load_p1ulv240_1 conn=wye bus1=p1ulv240.1 kV=0.12 Vminpu=0.8 Vmaxpu=1.2 model=1 kW=3.185677527023716 kvar=0.7066929516502537 Phases=1 yearly=com_kw_13750_pu

New Load.load_p1ulv240_2 conn=wye bus1=p1ulv240.2 kV=0.12 Vminpu=0.8 Vmaxpu=1.2 model=1 kW=3.185677527023716 kvar=0.7066929516502537 Phases=1 yearly=com_kw_13750_pu

New Load.load_p1ulv241_1 conn=wye bus1=p1ulv241.1 kV=0.12 Vminpu=0.8 Vmaxpu=1.2 model=1 kW=4.081735511976485 kvar=0.9882394625849078 Phases=1 yearly=com_kw_14650_pu

New Load.load_p1ulv241_2 conn=wye bus1=p1ulv241.2 kV=0.12 Vminpu=0.8 Vmaxpu=1.2 model=1 kW=4.081735511976485 kvar=0.9882394625849078 Phases=1 yearly=com_kw_14650_pu

New Load.load_p1ulv242_1 conn=wye bus1=p1ulv242.1 kV=0.12 Vminpu=0.8 Vmaxpu=1.2 model=1 kW=3.0721844660900577 kvar=0.7060482494440881 Phases=1 yearly=com_kw_13303_pu

New Load.load_p1ulv242_2 conn=wye bus1=p1ulv242.2 kV=0.12 Vminpu=0.8 Vmaxpu=1.2 model=1 kW=3.0721844660900577 kvar=0.7060482494440881 Phases=1 yearly=com_kw_13303_pu

New Load.load_p1ulv243_1 conn=wye bus1=p1ulv243.1 kV=0.12 Vminpu=0.8 Vmaxpu=1.2 model=1 kW=4.081735511976485 kvar=0.9882394625849078 Phases=1 yearly=com_kw_14650_pu

New Load.load_p1ulv243_2 conn=wye bus1=p1ulv243.2 kV=0.12 Vminpu=0.8 Vmaxpu=1.2 model=1 kW=4.081735511976485 kvar=0.9882394625849078 Phases=1 yearly=com_kw_14650_pu

New Load.load_p1ulv244_1 conn=wye bus1=p1ulv244.1 kV=0.12 Vminpu=0.8 Vmaxpu=1.2 model=1 kW=4.081735511976485 kvar=0.9882394625849078 Phases=1 yearly=com_kw_14650_pu

New Load.load_p1ulv244_2 conn=wye bus1=p1ulv244.2 kV=0.12 Vminpu=0.8 Vmaxpu=1.2 model=1 kW=4.081735511976485 kvar=0.9882394625849078 Phases=1 yearly=com_kw_14650_pu

New Load.load_p1ulv245_1 conn=wye bus1=p1ulv245.1 kV=0.12 Vminpu=0.8 Vmaxpu=1.2 model=1 kW=13.251431311430247 kvar=0.1493407165487586 Phases=1 yearly=com_kw_14976_pu

New Load.load_p1ulv245_2 conn=wye bus1=p1ulv245.2 kV=0.12 Vminpu=0.8 Vmaxpu=1.2 model=1 kW=13.251431311430247 kvar=0.1493407165487586 Phases=1 yearly=com_kw_14976_pu

New Load.load_p1ulv246_1 conn=wye bus1=p1ulv246.1 kV=0.12 Vminpu=0.8 Vmaxpu=1.2 model=1 kW=2.27937269045903 kvar=0.6423134931189778 Phases=1 yearly=com_kw_15224_pu

New Load.load_p1ulv246_2 conn=wye bus1=p1ulv246.2 kV=0.12 Vminpu=0.8 Vmaxpu=1.2 model=1 kW=2.27937269045903 kvar=0.6423134931189778 Phases=1 yearly=com_kw_15224_pu

New Load.load_p1ulv247_1 conn=wye bus1=p1ulv247.1 kV=0.12 Vminpu=0.8 Vmaxpu=1.2 model=1 kW=6.689828525328081 kvar=0.3132468951719517 Phases=1 yearly=com_kw_14726_pu

New Load.load_p1ulv247_2 conn=wye bus1=p1ulv247.2 kV=0.12 Vminpu=0.8 Vmaxpu=1.2 model=1 kW=6.689828525328081 kvar=0.3132468951719517 Phases=1 yearly=com_kw_14726_pu

New Load.load_p1ulv248_1 conn=wye bus1=p1ulv248.1 kV=0.12 Vminpu=0.8 Vmaxpu=1.2 model=1 kW=2.465496051676302 kvar=0.5881407747231531 Phases=1 yearly=com_kw_13121_pu

New Load.load_p1ulv248_2 conn=wye bus1=p1ulv248.2 kV=0.12 Vminpu=0.8 Vmaxpu=1.2 model=1 kW=2.465496051676302 kvar=0.5881407747231531 Phases=1 yearly=com_kw_13121_pu

New Load.load_p1ulv249_1 conn=wye bus1=p1ulv249.1 kV=0.12 Vminpu=0.8 Vmaxpu=1.2 model=1 kW=4.081735511976485 kvar=0.9882394625849078 Phases=1 yearly=com_kw_14650_pu

New Load.load_p1ulv249_2 conn=wye bus1=p1ulv249.2 kV=0.12 Vminpu=0.8 Vmaxpu=1.2 model=1 kW=4.081735511976485 kvar=0.9882394625849078 Phases=1 yearly=com_kw_14650_pu

New Load.load_p1ulv250_1 conn=wye bus1=p1ulv249.1 kV=0.12 Vminpu=0.8 Vmaxpu=1.2 model=1 kW=13.251431311430247 kvar=0.1493407165487586 Phases=1 yearly=com_kw_14976_pu

New Load.load_p1ulv250_2 conn=wye bus1=p1ulv249.2 kV=0.12 Vminpu=0.8 Vmaxpu=1.2 model=1 kW=13.251431311430247 kvar=0.1493407165487586 Phases=1 yearly=com_kw_14976_pu

New Load.load_p1ulv251_1 conn=wye bus1=p1ulv251.1 kV=0.12 Vminpu=0.8 Vmaxpu=1.2 model=1 kW=13.251431311430247 kvar=0.1493407165487586 Phases=1 yearly=com_kw_14976_pu

New Load.load_p1ulv251_2 conn=wye bus1=p1ulv251.2 kV=0.12 Vminpu=0.8 Vmaxpu=1.2 model=1 kW=13.251431311430247 kvar=0.1493407165487586 Phases=1 yearly=com_kw_14976_pu

New Load.load_p1ulv252_1 conn=wye bus1=p1ulv251.1 kV=0.12 Vminpu=0.8 Vmaxpu=1.2 model=1 kW=2.0380250144225394 kvar=0.5847764991219453 Phases=1 yearly=com_kw_15124_pu

New Load.load_p1ulv252_2 conn=wye bus1=p1ulv251.2 kV=0.12 Vminpu=0.8 Vmaxpu=1.2 model=1 kW=2.0380250144225394 kvar=0.5847764991219453 Phases=1 yearly=com_kw_15124_pu

New Load.load_p1ulv253_1 conn=wye bus1=p1ulv253.1 kV=0.12 Vminpu=0.8 Vmaxpu=1.2 model=1 kW=4.081735511976485 kvar=0.9882394625849078 Phases=1 yearly=com_kw_14650_pu

New Load.load_p1ulv253_2 conn=wye bus1=p1ulv253.2 kV=0.12 Vminpu=0.8 Vmaxpu=1.2 model=1 kW=4.081735511976485 kvar=0.9882394625849078 Phases=1 yearly=com_kw_14650_pu

New Load.load_p1ulv254 conn=wye bus1=p1ulv254.1.2.3 kV=0.48 Vminpu=0.8 Vmaxpu=1.2 model=1 kW=19.607915171145514 kvar=5.168221822813155 Phases=3 yearly=com_kw_15238_pu

New Load.load_p1ulv255_1 conn=wye bus1=p1ulv255.1 kV=0.12 Vminpu=0.8 Vmaxpu=1.2 model=1 kW=5.1496269559453545 kvar=1.5323145223091108 Phases=1 yearly=com_kw_14231_pu

New Load.load_p1ulv255_2 conn=wye bus1=p1ulv255.2 kV=0.12 Vminpu=0.8 Vmaxpu=1.2 model=1 kW=5.1496269559453545 kvar=1.5323145223091108 Phases=1 yearly=com_kw_14231_pu

New Load.load_p1ulv256_1 conn=wye bus1=p1ulv256.1 kV=0.12 Vminpu=0.8 Vmaxpu=1.2 model=1 kW=13.251431311430247 kvar=0.1493407165487586 Phases=1 yearly=com_kw_14976_pu

New Load.load_p1ulv256_2 conn=wye bus1=p1ulv256.2 kV=0.12 Vminpu=0.8 Vmaxpu=1.2 model=1 kW=13.251431311430247 kvar=0.1493407165487586 Phases=1 yearly=com_kw_14976_pu

New Load.load_p1ulv257_1 conn=wye bus1=p1ulv257.1 kV=0.12 Vminpu=0.8 Vmaxpu=1.2 model=1 kW=2.1271986187473146 kvar=0.5751959086648131 Phases=1 yearly=com_kw_14402_pu

New Load.load_p1ulv257_2 conn=wye bus1=p1ulv257.2 kV=0.12 Vminpu=0.8 Vmaxpu=1.2 model=1 kW=2.1271986187473146 kvar=0.5751959086648131 Phases=1 yearly=com_kw_14402_pu

New Load.load_p1ulv258_1 conn=wye bus1=p1ulv258.1 kV=0.12 Vminpu=0.8 Vmaxpu=1.2 model=1 kW=6.588681190871058 kvar=0.35410555484331485 Phases=1 yearly=com_kw_14280_pu

New Load.load_p1ulv258_2 conn=wye bus1=p1ulv258.2 kV=0.12 Vminpu=0.8 Vmaxpu=1.2 model=1 kW=6.588681190871058 kvar=0.35410555484331485 Phases=1 yearly=com_kw_14280_pu

New Load.load_p1ulv259_1 conn=wye bus1=p1ulv259.1 kV=0.12 Vminpu=0.8 Vmaxpu=1.2 model=1 kW=4.081735511976485 kvar=0.9882394625849078 Phases=1 yearly=com_kw_14650_pu

New Load.load_p1ulv259_2 conn=wye bus1=p1ulv259.2 kV=0.12 Vminpu=0.8 Vmaxpu=1.2 model=1 kW=4.081735511976485 kvar=0.9882394625849078 Phases=1 yearly=com_kw_14650_pu

New Load.load_p1ulv260_1 conn=wye bus1=p1ulv260.1 kV=0.12 Vminpu=0.8 Vmaxpu=1.2 model=1 kW=13.251431311430247 kvar=0.1493407165487586 Phases=1 yearly=com_kw_14976_pu

New Load.load_p1ulv260_2 conn=wye bus1=p1ulv260.2 kV=0.12 Vminpu=0.8 Vmaxpu=1.2 model=1 kW=13.251431311430247 kvar=0.1493407165487586 Phases=1 yearly=com_kw_14976_pu

New Load.load_p1ulv261_1 conn=wye bus1=p1ulv261.1 kV=0.12 Vminpu=0.8 Vmaxpu=1.2 model=1 kW=2.0380250144225394 kvar=0.5847764991219453 Phases=1 yearly=com_kw_15124_pu

New Load.load_p1ulv261_2 conn=wye bus1=p1ulv261.2 kV=0.12 Vminpu=0.8 Vmaxpu=1.2 model=1 kW=2.0380250144225394 kvar=0.5847764991219453 Phases=1 yearly=com_kw_15124_pu

New Load.load_p1ulv262_1 conn=wye bus1=p1ulv262.1 kV=0.12 Vminpu=0.8 Vmaxpu=1.2 model=1 kW=2.0380250144225394 kvar=0.5847764991219453 Phases=1 yearly=com_kw_15124_pu

New Load.load_p1ulv262_2 conn=wye bus1=p1ulv262.2 kV=0.12 Vminpu=0.8 Vmaxpu=1.2 model=1 kW=2.0380250144225394 kvar=0.5847764991219453 Phases=1 yearly=com_kw_15124_pu

New Load.load_p1ulv263_1 conn=wye bus1=p1ulv263.1 kV=0.12 Vminpu=0.8 Vmaxpu=1.2 model=1 kW=2.0380250144225394 kvar=0.5847764991219453 Phases=1 yearly=com_kw_15124_pu

New Load.load_p1ulv263_2 conn=wye bus1=p1ulv263.2 kV=0.12 Vminpu=0.8 Vmaxpu=1.2 model=1 kW=2.0380250144225394 kvar=0.5847764991219453 Phases=1 yearly=com_kw_15124_pu

New Load.load_p1ulv264_1 conn=wye bus1=p1ulv264.1 kV=0.12 Vminpu=0.8 Vmaxpu=1.2 model=1 kW=1.8775078991445364 kvar=0.511706884096551 Phases=1 yearly=com_kw_14932_pu

New Load.load_p1ulv264_2 conn=wye bus1=p1ulv264.2 kV=0.12 Vminpu=0.8 Vmaxpu=1.2 model=1 kW=1.8775078991445364 kvar=0.511706884096551 Phases=1 yearly=com_kw_14932_pu

New Load.load_p1ulv265_1 conn=wye bus1=p1ulv264.1 kV=0.12 Vminpu=0.8 Vmaxpu=1.2 model=1 kW=2.0380250144225394 kvar=0.5847764991219453 Phases=1 yearly=com_kw_15124_pu

New Load.load_p1ulv265_2 conn=wye bus1=p1ulv264.2 kV=0.12 Vminpu=0.8 Vmaxpu=1.2 model=1 kW=2.0380250144225394 kvar=0.5847764991219453 Phases=1 yearly=com_kw_15124_pu

New Load.load_p1ulv266_1 conn=wye bus1=p1ulv266.1 kV=0.12 Vminpu=0.8 Vmaxpu=1.2 model=1 kW=2.0380250144225394 kvar=0.5847764991219453 Phases=1 yearly=com_kw_15124_pu

New Load.load_p1ulv266_2 conn=wye bus1=p1ulv266.2 kV=0.12 Vminpu=0.8 Vmaxpu=1.2 model=1 kW=2.0380250144225394 kvar=0.5847764991219453 Phases=1 yearly=com_kw_15124_pu

New Load.load_p1ulv267_1 conn=wye bus1=p1ulv266.1 kV=0.12 Vminpu=0.8 Vmaxpu=1.2 model=1 kW=1.8775078991445364 kvar=0.511706884096551 Phases=1 yearly=com_kw_14932_pu

New Load.load_p1ulv267_2 conn=wye bus1=p1ulv266.2 kV=0.12 Vminpu=0.8 Vmaxpu=1.2 model=1 kW=1.8775078991445364 kvar=0.511706884096551 Phases=1 yearly=com_kw_14932_pu

New Load.load_p1ulv268_1 conn=wye bus1=p1ulv268.1 kV=0.12 Vminpu=0.8 Vmaxpu=1.2 model=1 kW=1.8914832317680952 kvar=0.4701288429802831 Phases=1 yearly=com_kw_13018_pu

New Load.load_p1ulv268_2 conn=wye bus1=p1ulv268.2 kV=0.12 Vminpu=0.8 Vmaxpu=1.2 model=1 kW=1.8914832317680952 kvar=0.4701288429802831 Phases=1 yearly=com_kw_13018_pu

New Load.load_p1ulv269_1 conn=wye bus1=p1ulv268.1 kV=0.12 Vminpu=0.8 Vmaxpu=1.2 model=1 kW=1.8914832317680952 kvar=0.4701288429802831 Phases=1 yearly=com_kw_13018_pu

New Load.load_p1ulv269_2 conn=wye bus1=p1ulv268.2 kV=0.12 Vminpu=0.8 Vmaxpu=1.2 model=1 kW=1.8914832317680952 kvar=0.4701288429802831 Phases=1 yearly=com_kw_13018_pu

New Load.load_p1ulv270_1 conn=wye bus1=p1ulv270.1 kV=0.12 Vminpu=0.8 Vmaxpu=1.2 model=1 kW=1.8914832317680952 kvar=0.4701288429802831 Phases=1 yearly=com_kw_13018_pu

New Load.load_p1ulv270_2 conn=wye bus1=p1ulv270.2 kV=0.12 Vminpu=0.8 Vmaxpu=1.2 model=1 kW=1.8914832317680952 kvar=0.4701288429802831 Phases=1 yearly=com_kw_13018_pu

New Load.load_p1ulv271_1 conn=wye bus1=p1ulv271.1 kV=0.12 Vminpu=0.8 Vmaxpu=1.2 model=1 kW=1.8914832317680952 kvar=0.4701288429802831 Phases=1 yearly=com_kw_13018_pu

New Load.load_p1ulv271_2 conn=wye bus1=p1ulv271.2 kV=0.12 Vminpu=0.8 Vmaxpu=1.2 model=1 kW=1.8914832317680952 kvar=0.4701288429802831 Phases=1 yearly=com_kw_13018_pu

New Load.load_p1ulv272_1 conn=wye bus1=p1ulv272.1 kV=0.12 Vminpu=0.8 Vmaxpu=1.2 model=1 kW=2.0380250144225394 kvar=0.5847764991219453 Phases=1 yearly=com_kw_15124_pu

New Load.load_p1ulv272_2 conn=wye bus1=p1ulv272.2 kV=0.12 Vminpu=0.8 Vmaxpu=1.2 model=1 kW=2.0380250144225394 kvar=0.5847764991219453 Phases=1 yearly=com_kw_15124_pu

New Load.load_p1ulv273_1 conn=wye bus1=p1ulv273.1 kV=0.12 Vminpu=0.8 Vmaxpu=1.2 model=1 kW=1.8801200674575587 kvar=0.53962653273889 Phases=1 yearly=com_kw_13578_pu

New Load.load_p1ulv273_2 conn=wye bus1=p1ulv273.2 kV=0.12 Vminpu=0.8 Vmaxpu=1.2 model=1 kW=1.8801200674575587 kvar=0.53962653273889 Phases=1 yearly=com_kw_13578_pu

New Load.load_p1ulv274_1 conn=wye bus1=p1ulv274.1 kV=0.12 Vminpu=0.8 Vmaxpu=1.2 model=1 kW=1.9038750316582675 kvar=0.5392511078342896 Phases=1 yearly=com_kw_13025_pu

New Load.load_p1ulv274_2 conn=wye bus1=p1ulv274.2 kV=0.12 Vminpu=0.8 Vmaxpu=1.2 model=1 kW=1.9038750316582675 kvar=0.5392511078342896 Phases=1 yearly=com_kw_13025_pu

New Load.load_p1ulv275_1 conn=wye bus1=p1ulv274.1 kV=0.12 Vminpu=0.8 Vmaxpu=1.2 model=1 kW=1.8914832317680952 kvar=0.4701288429802831 Phases=1 yearly=com_kw_13018_pu

New Load.load_p1ulv275_2 conn=wye bus1=p1ulv274.2 kV=0.12 Vminpu=0.8 Vmaxpu=1.2 model=1 kW=1.8914832317680952 kvar=0.4701288429802831 Phases=1 yearly=com_kw_13018_pu

New Load.load_p1ulv276_1 conn=wye bus1=p1ulv276.1 kV=0.12 Vminpu=0.8 Vmaxpu=1.2 model=1 kW=13.251431311430247 kvar=0.1493407165487586 Phases=1 yearly=com_kw_14976_pu

New Load.load_p1ulv276_2 conn=wye bus1=p1ulv276.2 kV=0.12 Vminpu=0.8 Vmaxpu=1.2 model=1 kW=13.251431311430247 kvar=0.1493407165487586 Phases=1 yearly=com_kw_14976_pu

New Load.load_p1ulv277_1 conn=wye bus1=p1ulv277.1 kV=0.12 Vminpu=0.8 Vmaxpu=1.2 model=1 kW=1.8914832317680952 kvar=0.4701288429802831 Phases=1 yearly=com_kw_13018_pu

New Load.load_p1ulv277_2 conn=wye bus1=p1ulv277.2 kV=0.12 Vminpu=0.8 Vmaxpu=1.2 model=1 kW=1.8914832317680952 kvar=0.4701288429802831 Phases=1 yearly=com_kw_13018_pu

New Load.load_p1ulv278_1 conn=wye bus1=p1ulv278.1 kV=0.12 Vminpu=0.8 Vmaxpu=1.2 model=1 kW=13.251431311430247 kvar=0.1493407165487586 Phases=1 yearly=com_kw_14976_pu

New Load.load_p1ulv278_2 conn=wye bus1=p1ulv278.2 kV=0.12 Vminpu=0.8 Vmaxpu=1.2 model=1 kW=13.251431311430247 kvar=0.1493407165487586 Phases=1 yearly=com_kw_14976_pu

New Load.load_p1ulv279_1 conn=wye bus1=p1ulv279.1 kV=0.12 Vminpu=0.8 Vmaxpu=1.2 model=1 kW=2.1271986187473146 kvar=0.5751959086648131 Phases=1 yearly=com_kw_14402_pu

New Load.load_p1ulv279_2 conn=wye bus1=p1ulv279.2 kV=0.12 Vminpu=0.8 Vmaxpu=1.2 model=1 kW=2.1271986187473146 kvar=0.5751959086648131 Phases=1 yearly=com_kw_14402_pu

New Load.load_p1ulv280_1 conn=wye bus1=p1ulv280.1 kV=0.12 Vminpu=0.8 Vmaxpu=1.2 model=1 kW=1.8914832317680952 kvar=0.4701288429802831 Phases=1 yearly=com_kw_13018_pu

New Load.load_p1ulv280_2 conn=wye bus1=p1ulv280.2 kV=0.12 Vminpu=0.8 Vmaxpu=1.2 model=1 kW=1.8914832317680952 kvar=0.4701288429802831 Phases=1 yearly=com_kw_13018_pu

New Load.load_p1ulv281_1 conn=wye bus1=p1ulv281.1 kV=0.12 Vminpu=0.8 Vmaxpu=1.2 model=1 kW=1.8914832317680952 kvar=0.4701288429802831 Phases=1 yearly=com_kw_13018_pu

New Load.load_p1ulv281_2 conn=wye bus1=p1ulv281.2 kV=0.12 Vminpu=0.8 Vmaxpu=1.2 model=1 kW=1.8914832317680952 kvar=0.4701288429802831 Phases=1 yearly=com_kw_13018_pu

New Load.load_p1ulv282_1 conn=wye bus1=p1ulv282.1 kV=0.12 Vminpu=0.8 Vmaxpu=1.2 model=1 kW=4.857616015471129 kvar=0.2397306111492685 Phases=1 yearly=com_kw_14883_pu

New Load.load_p1ulv282_2 conn=wye bus1=p1ulv282.2 kV=0.12 Vminpu=0.8 Vmaxpu=1.2 model=1 kW=4.857616015471129 kvar=0.2397306111492685 Phases=1 yearly=com_kw_14883_pu

New Load.load_p1ulv283_1 conn=wye bus1=p1ulv283.1 kV=0.12 Vminpu=0.8 Vmaxpu=1.2 model=1 kW=1.8801200674575587 kvar=0.53962653273889 Phases=1 yearly=com_kw_13578_pu

New Load.load_p1ulv283_2 conn=wye bus1=p1ulv283.2 kV=0.12 Vminpu=0.8 Vmaxpu=1.2 model=1 kW=1.8801200674575587 kvar=0.53962653273889 Phases=1 yearly=com_kw_13578_pu

New Load.load_p1ulv325_1 conn=wye bus1=p1ulv325.1 kV=0.12 Vminpu=0.8 Vmaxpu=1.2 model=1 kW=8.189330617096166 kvar=1.820071367344977 Phases=1 yearly=com_kw_12975_pu

New Load.load_p1ulv325_2 conn=wye bus1=p1ulv325.2 kV=0.12 Vminpu=0.8 Vmaxpu=1.2 model=1 kW=8.189330617096166 kvar=1.820071367344977 Phases=1 yearly=com_kw_12975_pu

New Load.load_p1ulv326 conn=wye bus1=p1ulv326.1.2.3 kV=0.48 Vminpu=0.8 Vmaxpu=1.2 model=1 kW=22.152047737869896 kvar=6.510834234174965 Phases=3 yearly=com_kw_14325_pu

New Load.load_p1ulv2028_1 conn=wye bus1=p1ulv2028.1 kV=0.12 Vminpu=0.8 Vmaxpu=1.2 model=1 kW=10.375628907780863 kvar=4.616486224330442 Phases=1 yearly=res_kw_1267_pu

New Load.load_p1ulv2028_2 conn=wye bus1=p1ulv2028.2 kV=0.12 Vminpu=0.8 Vmaxpu=1.2 model=1 kW=10.375628907780863 kvar=4.616486224330442 Phases=1 yearly=res_kw_1267_pu

New Load.load_p1ulv2029_1 conn=wye bus1=p1ulv2028.1 kV=0.12 Vminpu=0.8 Vmaxpu=1.2 model=1 kW=3.3022463090013963 kvar=0.3558858552969609 Phases=1 yearly=res_kw_236_pu

New Load.load_p1ulv2029_2 conn=wye bus1=p1ulv2028.2 kV=0.12 Vminpu=0.8 Vmaxpu=1.2 model=1 kW=3.3022463090013963 kvar=0.3558858552969609 Phases=1 yearly=res_kw_236_pu

New Load.load_p1ulv2030_1 conn=wye bus1=p1ulv2030.1 kV=0.12 Vminpu=0.8 Vmaxpu=1.2 model=1 kW=10.375628907780863 kvar=4.616486224330442 Phases=1 yearly=res_kw_1267_pu

New Load.load_p1ulv2030_2 conn=wye bus1=p1ulv2030.2 kV=0.12 Vminpu=0.8 Vmaxpu=1.2 model=1 kW=10.375628907780863 kvar=4.616486224330442 Phases=1 yearly=res_kw_1267_pu

New Load.load_p1ulv2031_1 conn=wye bus1=p1ulv2031.1 kV=0.12 Vminpu=0.8 Vmaxpu=1.2 model=1 kW=4.725263221485363 kvar=1.0173757011563145 Phases=1 yearly=res_kw_752_pu

New Load.load_p1ulv2031_2 conn=wye bus1=p1ulv2031.2 kV=0.12 Vminpu=0.8 Vmaxpu=1.2 model=1 kW=4.725263221485363 kvar=1.0173757011563145 Phases=1 yearly=res_kw_752_pu

New Load.load_p1ulv2032_1 conn=wye bus1=p1ulv2032.1 kV=0.12 Vminpu=0.8 Vmaxpu=1.2 model=1 kW=7.088530083600876 kvar=2.6134476319600712 Phases=1 yearly=res_kw_267_pu

New Load.load_p1ulv2032_2 conn=wye bus1=p1ulv2032.2 kV=0.12 Vminpu=0.8 Vmaxpu=1.2 model=1 kW=7.088530083600876 kvar=2.6134476319600712 Phases=1 yearly=res_kw_267_pu

New Load.load_p1ulv2033_1 conn=wye bus1=p1ulv2033.1 kV=0.12 Vminpu=0.8 Vmaxpu=1.2 model=1 kW=7.088530083600876 kvar=2.6134476319600712 Phases=1 yearly=res_kw_267_pu

New Load.load_p1ulv2033_2 conn=wye bus1=p1ulv2033.2 kV=0.12 Vminpu=0.8 Vmaxpu=1.2 model=1 kW=7.088530083600876 kvar=2.6134476319600712 Phases=1 yearly=res_kw_267_pu

New Load.load_p1ulv2034_1 conn=wye bus1=p1ulv2034.1 kV=0.12 Vminpu=0.8 Vmaxpu=1.2 model=1 kW=10.375628907780863 kvar=4.616486224330442 Phases=1 yearly=res_kw_1267_pu

New Load.load_p1ulv2034_2 conn=wye bus1=p1ulv2034.2 kV=0.12 Vminpu=0.8 Vmaxpu=1.2 model=1 kW=10.375628907780863 kvar=4.616486224330442 Phases=1 yearly=res_kw_1267_pu

New Load.load_p1ulv2035_1 conn=wye bus1=p1ulv2035.1 kV=0.12 Vminpu=0.8 Vmaxpu=1.2 model=1 kW=2.9898249364160714 kvar=0.2983164502279761 Phases=1 yearly=res_kw_1070_pu

New Load.load_p1ulv2035_2 conn=wye bus1=p1ulv2035.2 kV=0.12 Vminpu=0.8 Vmaxpu=1.2 model=1 kW=2.9898249364160714 kvar=0.2983164502279761 Phases=1 yearly=res_kw_1070_pu

New Load.load_p1ulv2036_1 conn=wye bus1=p1ulv2036.1 kV=0.12 Vminpu=0.8 Vmaxpu=1.2 model=1 kW=5.286987923172412 kvar=0.912918656895422 Phases=1 yearly=res_kw_75_pu

New Load.load_p1ulv2036_2 conn=wye bus1=p1ulv2036.2 kV=0.12 Vminpu=0.8 Vmaxpu=1.2 model=1 kW=5.286987923172412 kvar=0.912918656895422 Phases=1 yearly=res_kw_75_pu

New Load.load_p1ulv2037_1 conn=wye bus1=p1ulv2036.1 kV=0.12 Vminpu=0.8 Vmaxpu=1.2 model=1 kW=5.6593015111322105 kvar=1.2761251920573724 Phases=1 yearly=res_kw_324_pu

New Load.load_p1ulv2037_2 conn=wye bus1=p1ulv2036.2 kV=0.12 Vminpu=0.8 Vmaxpu=1.2 model=1 kW=5.6593015111322105 kvar=1.2761251920573724 Phases=1 yearly=res_kw_324_pu

New Load.load_p1ulv2038_1 conn=wye bus1=p1ulv2038.1 kV=0.12 Vminpu=0.8 Vmaxpu=1.2 model=1 kW=2.9898249364160714 kvar=0.2983164502279761 Phases=1 yearly=res_kw_1070_pu

New Load.load_p1ulv2038_2 conn=wye bus1=p1ulv2038.2 kV=0.12 Vminpu=0.8 Vmaxpu=1.2 model=1 kW=2.9898249364160714 kvar=0.2983164502279761 Phases=1 yearly=res_kw_1070_pu

New Load.load_p1ulv2039_1 conn=wye bus1=p1ulv2038.1 kV=0.12 Vminpu=0.8 Vmaxpu=1.2 model=1 kW=7.088530083600876 kvar=2.6134476319600712 Phases=1 yearly=res_kw_267_pu

New Load.load_p1ulv2039_2 conn=wye bus1=p1ulv2038.2 kV=0.12 Vminpu=0.8 Vmaxpu=1.2 model=1 kW=7.088530083600876 kvar=2.6134476319600712 Phases=1 yearly=res_kw_267_pu

New Load.load_p1ulv2040_1 conn=wye bus1=p1ulv2040.1 kV=0.12 Vminpu=0.8 Vmaxpu=1.2 model=1 kW=13.251431311430247 kvar=0.1493407165487586 Phases=1 yearly=com_kw_14976_pu

New Load.load_p1ulv2040_2 conn=wye bus1=p1ulv2040.2 kV=0.12 Vminpu=0.8 Vmaxpu=1.2 model=1 kW=13.251431311430247 kvar=0.1493407165487586 Phases=1 yearly=com_kw_14976_pu

New Load.load_p1ulv2041_1 conn=wye bus1=p1ulv2041.1 kV=0.12 Vminpu=0.8 Vmaxpu=1.2 model=1 kW=2.27937269045903 kvar=0.6423134931189778 Phases=1 yearly=com_kw_15224_pu

New Load.load_p1ulv2041_2 conn=wye bus1=p1ulv2041.2 kV=0.12 Vminpu=0.8 Vmaxpu=1.2 model=1 kW=2.27937269045903 kvar=0.6423134931189778 Phases=1 yearly=com_kw_15224_pu

New Load.load_p1ulv2042_1 conn=wye bus1=p1ulv2041.1 kV=0.12 Vminpu=0.8 Vmaxpu=1.2 model=1 kW=2.6553586809579963 kvar=0.7876053182917278 Phases=1 yearly=com_kw_13567_pu

New Load.load_p1ulv2042_2 conn=wye bus1=p1ulv2041.2 kV=0.12 Vminpu=0.8 Vmaxpu=1.2 model=1 kW=2.6553586809579963 kvar=0.7876053182917278 Phases=1 yearly=com_kw_13567_pu

New Load.load_p1ulv2043_1 conn=wye bus1=p1ulv2043.1 kV=0.12 Vminpu=0.8 Vmaxpu=1.2 model=1 kW=1.8413982632457628 kvar=0.4913074890993267 Phases=1 yearly=com_kw_13875_pu

New Load.load_p1ulv2043_2 conn=wye bus1=p1ulv2043.2 kV=0.12 Vminpu=0.8 Vmaxpu=1.2 model=1 kW=1.8413982632457628 kvar=0.4913074890993267 Phases=1 yearly=com_kw_13875_pu

New Load.load_p1ulv2044_1 conn=wye bus1=p1ulv2044.1 kV=0.12 Vminpu=0.8 Vmaxpu=1.2 model=1 kW=13.251431311430247 kvar=0.1493407165487586 Phases=1 yearly=com_kw_14976_pu

New Load.load_p1ulv2044_2 conn=wye bus1=p1ulv2044.2 kV=0.12 Vminpu=0.8 Vmaxpu=1.2 model=1 kW=13.251431311430247 kvar=0.1493407165487586 Phases=1 yearly=com_kw_14976_pu

New Load.load_p1ulv2045_1 conn=wye bus1=p1ulv2045.1 kV=0.12 Vminpu=0.8 Vmaxpu=1.2 model=1 kW=2.7964925670698424 kvar=0.800653953636514 Phases=1 yearly=com_kw_13842_pu

New Load.load_p1ulv2045_2 conn=wye bus1=p1ulv2045.2 kV=0.12 Vminpu=0.8 Vmaxpu=1.2 model=1 kW=2.7964925670698424 kvar=0.800653953636514 Phases=1 yearly=com_kw_13842_pu

New Load.load_p1ulv2046_1 conn=wye bus1=p1ulv2046.1 kV=0.12 Vminpu=0.8 Vmaxpu=1.2 model=1 kW=13.251431311430247 kvar=0.1493407165487586 Phases=1 yearly=com_kw_14976_pu

New Load.load_p1ulv2046_2 conn=wye bus1=p1ulv2046.2 kV=0.12 Vminpu=0.8 Vmaxpu=1.2 model=1 kW=13.251431311430247 kvar=0.1493407165487586 Phases=1 yearly=com_kw_14976_pu
