New Load.load_p1ulv207_1 conn=wye bus1=p1ulv207.1 kV=0.12 Vminpu=0.8 Vmaxpu=1.2 model=1 kW=7.209663685090437 kvar=1.9416268894576516 Phases=1 yearly=res_kw_356_pu

New Load.load_p1ulv207_2 conn=wye bus1=p1ulv207.2 kV=0.12 Vminpu=0.8 Vmaxpu=1.2 model=1 kW=7.209663685090437 kvar=1.9416268894576516 Phases=1 yearly=res_kw_356_pu

New Load.load_p1ulv211_1 conn=wye bus1=p1ulv211.1 kV=0.12 Vminpu=0.8 Vmaxpu=1.2 model=1 kW=5.873352103240601 kvar=1.0950545410002186 Phases=1 yearly=res_kw_675_pu

New Load.load_p1ulv211_2 conn=wye bus1=p1ulv211.2 kV=0.12 Vminpu=0.8 Vmaxpu=1.2 model=1 kW=5.873352103240601 kvar=1.0950545410002186 Phases=1 yearly=res_kw_675_pu

New Load.load_p1ulv212_1 conn=wye bus1=p1ulv212.1 kV=0.12 Vminpu=0.8 Vmaxpu=1.2 model=1 kW=4.7264639008757365 kvar=1.36553634213978 Phases=1 yearly=res_kw_1220_pu

New Load.load_p1ulv212_2 conn=wye bus1=p1ulv212.2 kV=0.12 Vminpu=0.8 Vmaxpu=1.2 model=1 kW=4.7264639008757365 kvar=1.36553634213978 Phases=1 yearly=res_kw_1220_pu

New Load.load_p1ulv800 conn=wye bus1=p1ulv800.1.2.3 kV=0.48 Vminpu=0.8 Vmaxpu=1.2 model=1 kW=31.56390894948716 kvar=5.59016195527881 Phases=3 yearly=res_kw_76_pu

New Load.load_p1ulv803 conn=wye bus1=p1ulv803.1.2.3 kV=0.48 Vminpu=0.8 Vmaxpu=1.2 model=1 kW=31.56390894948716 kvar=5.59016195527881 Phases=3 yearly=res_kw_76_pu

New Load.load_p1ulv805 conn=wye bus1=p1ulv805.1.2.3 kV=0.48 Vminpu=0.8 Vmaxpu=1.2 model=1 kW=31.56390894948716 kvar=5.59016195527881 Phases=3 yearly=res_kw_76_pu

New Load.load_p1ulv806 conn=wye bus1=p1ulv806.1.2.3 kV=0.48 Vminpu=0.8 Vmaxpu=1.2 model=1 kW=31.56390894948716 kvar=5.59016195527881 Phases=3 yearly=res_kw_76_pu

New Load.load_p1ulv808 conn=wye bus1=p1ulv808.1.2.3 kV=0.48 Vminpu=0.8 Vmaxpu=1.2 model=1 kW=31.56390894948716 kvar=5.59016195527881 Phases=3 yearly=res_kw_76_pu

New Load.load_p1ulv811 conn=wye bus1=p1ulv811.1.2.3 kV=0.48 Vminpu=0.8 Vmaxpu=1.2 model=1 kW=43.27018967162994 kvar=8.821343441318042 Phases=3 yearly=res_kw_916_pu

New Load.load_p1ulv829_1 conn=wye bus1=p1ulv829.1 kV=0.12 Vminpu=0.8 Vmaxpu=1.2 model=1 kW=13.251431311430247 kvar=0.1493407165487586 Phases=1 yearly=com_kw_14976_pu

New Load.load_p1ulv829_2 conn=wye bus1=p1ulv829.2 kV=0.12 Vminpu=0.8 Vmaxpu=1.2 model=1 kW=13.251431311430247 kvar=0.1493407165487586 Phases=1 yearly=com_kw_14976_pu

New Load.load_p1ulv830_1 conn=wye bus1=p1ulv830.1 kV=0.12 Vminpu=0.8 Vmaxpu=1.2 model=1 kW=4.8375139025721365 kvar=0.35349025429812664 Phases=1 yearly=com_kw_13636_pu

New Load.load_p1ulv830_2 conn=wye bus1=p1ulv830.2 kV=0.12 Vminpu=0.8 Vmaxpu=1.2 model=1 kW=4.8375139025721365 kvar=0.35349025429812664 Phases=1 yearly=com_kw_13636_pu

New Load.load_p1ulv831_1 conn=wye bus1=p1ulv831.1 kV=0.12 Vminpu=0.8 Vmaxpu=1.2 model=1 kW=6.847378896370207 kvar=0.2857422414791666 Phases=1 yearly=com_kw_14382_pu

New Load.load_p1ulv831_2 conn=wye bus1=p1ulv831.2 kV=0.12 Vminpu=0.8 Vmaxpu=1.2 model=1 kW=6.847378896370207 kvar=0.2857422414791666 Phases=1 yearly=com_kw_14382_pu

New Load.load_p1ulv832_1 conn=wye bus1=p1ulv832.1 kV=0.12 Vminpu=0.8 Vmaxpu=1.2 model=1 kW=4.567400583279893 kvar=1.314627207049078 Phases=1 yearly=com_kw_14206_pu

New Load.load_p1ulv832_2 conn=wye bus1=p1ulv832.2 kV=0.12 Vminpu=0.8 Vmaxpu=1.2 model=1 kW=4.567400583279893 kvar=1.314627207049078 Phases=1 yearly=com_kw_14206_pu

New Load.load_p1ulv833_1 conn=wye bus1=p1ulv833.1 kV=0.12 Vminpu=0.8 Vmaxpu=1.2 model=1 kW=6.847378896370207 kvar=0.2857422414791666 Phases=1 yearly=com_kw_14382_pu

New Load.load_p1ulv833_2 conn=wye bus1=p1ulv833.2 kV=0.12 Vminpu=0.8 Vmaxpu=1.2 model=1 kW=6.847378896370207 kvar=0.2857422414791666 Phases=1 yearly=com_kw_14382_pu

New Load.load_p1ulv834_1 conn=wye bus1=p1ulv834.1 kV=0.12 Vminpu=0.8 Vmaxpu=1.2 model=1 kW=3.9060227283575606 kvar=0.8578020352767629 Phases=1 yearly=res_kw_278_pu

New Load.load_p1ulv834_2 conn=wye bus1=p1ulv834.2 kV=0.12 Vminpu=0.8 Vmaxpu=1.2 model=1 kW=3.9060227283575606 kvar=0.8578020352767629 Phases=1 yearly=res_kw_278_pu

New Load.load_p1ulv835_1 conn=wye bus1=p1ulv835.1 kV=0.12 Vminpu=0.8 Vmaxpu=1.2 model=1 kW=9.341738473663403 kvar=2.018548151169967 Phases=1 yearly=res_kw_504_pu

New Load.load_p1ulv835_2 conn=wye bus1=p1ulv835.2 kV=0.12 Vminpu=0.8 Vmaxpu=1.2 model=1 kW=9.341738473663403 kvar=2.018548151169967 Phases=1 yearly=res_kw_504_pu

New Load.load_p1ulv836_1 conn=wye bus1=p1ulv836.1 kV=0.12 Vminpu=0.8 Vmaxpu=1.2 model=1 kW=3.469755020859998 kvar=0.8941520384931253 Phases=1 yearly=res_kw_4_pu

New Load.load_p1ulv836_2 conn=wye bus1=p1ulv836.2 kV=0.12 Vminpu=0.8 Vmaxpu=1.2 model=1 kW=3.469755020859998 kvar=0.8941520384931253 Phases=1 yearly=res_kw_4_pu

New Load.load_p1ulv837_1 conn=wye bus1=p1ulv837.1 kV=0.12 Vminpu=0.8 Vmaxpu=1.2 model=1 kW=5.5396149838334106 kvar=1.3495096504699533 Phases=1 yearly=res_kw_1273_pu

New Load.load_p1ulv837_2 conn=wye bus1=p1ulv837.2 kV=0.12 Vminpu=0.8 Vmaxpu=1.2 model=1 kW=5.5396149838334106 kvar=1.3495096504699533 Phases=1 yearly=res_kw_1273_pu

New Load.load_p1ulv838_1 conn=wye bus1=p1ulv838.1 kV=0.12 Vminpu=0.8 Vmaxpu=1.2 model=1 kW=3.0502193323758338 kvar=0.7068547525403183 Phases=1 yearly=res_kw_407_pu

New Load.load_p1ulv838_2 conn=wye bus1=p1ulv838.2 kV=0.12 Vminpu=0.8 Vmaxpu=1.2 model=1 kW=3.0502193323758338 kvar=0.7068547525403183 Phases=1 yearly=res_kw_407_pu

New Load.load_p1ulv839_1 conn=wye bus1=p1ulv839.1 kV=0.12 Vminpu=0.8 Vmaxpu=1.2 model=1 kW=5.5396149838334106 kvar=1.3495096504699533 Phases=1 yearly=res_kw_1273_pu

New Load.load_p1ulv839_2 conn=wye bus1=p1ulv839.2 kV=0.12 Vminpu=0.8 Vmaxpu=1.2 model=1 kW=5.5396149838334106 kvar=1.3495096504699533 Phases=1 yearly=res_kw_1273_pu

New Load.load_p1ulv840_1 conn=wye bus1=p1ulv840.1 kV=0.12 Vminpu=0.8 Vmaxpu=1.2 model=1 kW=5.163806898070874 kvar=0.9381412991116911 Phases=1 yearly=res_kw_98_pu

New Load.load_p1ulv840_2 conn=wye bus1=p1ulv840.2 kV=0.12 Vminpu=0.8 Vmaxpu=1.2 model=1 kW=5.163806898070874 kvar=0.9381412991116911 Phases=1 yearly=res_kw_98_pu

New Load.load_p1ulv845_1 conn=wye bus1=p1ulv845.1 kV=0.12 Vminpu=0.8 Vmaxpu=1.2 model=1 kW=3.469755020859998 kvar=0.8941520384931253 Phases=1 yearly=res_kw_4_pu

New Load.load_p1ulv845_2 conn=wye bus1=p1ulv845.2 kV=0.12 Vminpu=0.8 Vmaxpu=1.2 model=1 kW=3.469755020859998 kvar=0.8941520384931253 Phases=1 yearly=res_kw_4_pu

New Load.load_p1ulv846_1 conn=wye bus1=p1ulv846.1 kV=0.12 Vminpu=0.8 Vmaxpu=1.2 model=1 kW=2.6241521841182514 kvar=0.8429304779950015 Phases=1 yearly=res_kw_33_pu

New Load.load_p1ulv846_2 conn=wye bus1=p1ulv846.2 kV=0.12 Vminpu=0.8 Vmaxpu=1.2 model=1 kW=2.6241521841182514 kvar=0.8429304779950015 Phases=1 yearly=res_kw_33_pu

New Load.load_p1ulv848_1 conn=wye bus1=p1ulv848.1 kV=0.12 Vminpu=0.8 Vmaxpu=1.2 model=1 kW=5.723135606665604 kvar=1.5038194991101048 Phases=1 yearly=res_kw_1228_pu

New Load.load_p1ulv848_2 conn=wye bus1=p1ulv848.2 kV=0.12 Vminpu=0.8 Vmaxpu=1.2 model=1 kW=5.723135606665604 kvar=1.5038194991101048 Phases=1 yearly=res_kw_1228_pu

New Load.load_p1ulv852_1 conn=wye bus1=p1ulv852.1 kV=0.12 Vminpu=0.8 Vmaxpu=1.2 model=1 kW=3.8748715750127736 kvar=1.5614372175332516 Phases=1 yearly=res_kw_517_pu

New Load.load_p1ulv852_2 conn=wye bus1=p1ulv852.2 kV=0.12 Vminpu=0.8 Vmaxpu=1.2 model=1 kW=3.8748715750127736 kvar=1.5614372175332516 Phases=1 yearly=res_kw_517_pu

New Load.load_p1ulv853_1 conn=wye bus1=p1ulv853.1 kV=0.12 Vminpu=0.8 Vmaxpu=1.2 model=1 kW=7.195337616187572 kvar=1.3536865792954904 Phases=1 yearly=res_kw_462_pu

New Load.load_p1ulv853_2 conn=wye bus1=p1ulv853.2 kV=0.12 Vminpu=0.8 Vmaxpu=1.2 model=1 kW=7.195337616187572 kvar=1.3536865792954904 Phases=1 yearly=res_kw_462_pu

New Load.load_p1ulv855_1 conn=wye bus1=p1ulv855.1 kV=0.12 Vminpu=0.8 Vmaxpu=1.2 model=1 kW=2.40000228705824 kvar=1.0173787262529668 Phases=1 yearly=res_kw_1205_pu

New Load.load_p1ulv855_2 conn=wye bus1=p1ulv855.2 kV=0.12 Vminpu=0.8 Vmaxpu=1.2 model=1 kW=2.40000228705824 kvar=1.0173787262529668 Phases=1 yearly=res_kw_1205_pu

New Load.load_p1ulv857_1 conn=wye bus1=p1ulv857.1 kV=0.12 Vminpu=0.8 Vmaxpu=1.2 model=1 kW=7.195337616187572 kvar=1.3536865792954904 Phases=1 yearly=res_kw_462_pu

New Load.load_p1ulv857_2 conn=wye bus1=p1ulv857.2 kV=0.12 Vminpu=0.8 Vmaxpu=1.2 model=1 kW=7.195337616187572 kvar=1.3536865792954904 Phases=1 yearly=res_kw_462_pu

New Load.load_p1ulv858_1 conn=wye bus1=p1ulv858.1 kV=0.12 Vminpu=0.8 Vmaxpu=1.2 model=1 kW=2.0903747651596376 kvar=0.7957076388263523 Phases=1 yearly=res_kw_1223_pu

New Load.load_p1ulv858_2 conn=wye bus1=p1ulv858.2 kV=0.12 Vminpu=0.8 Vmaxpu=1.2 model=1 kW=2.0903747651596376 kvar=0.7957076388263523 Phases=1 yearly=res_kw_1223_pu

New Load.load_p1ulv958_1 conn=wye bus1=p1ulv958.1 kV=0.12 Vminpu=0.8 Vmaxpu=1.2 model=1 kW=7.93049382572733 kvar=0.16129015048142953 Phases=1 yearly=com_kw_14549_pu

New Load.load_p1ulv958_2 conn=wye bus1=p1ulv958.2 kV=0.12 Vminpu=0.8 Vmaxpu=1.2 model=1 kW=7.93049382572733 kvar=0.16129015048142953 Phases=1 yearly=com_kw_14549_pu

New Load.load_p1ulv960_1 conn=wye bus1=p1ulv960.1 kV=0.12 Vminpu=0.8 Vmaxpu=1.2 model=1 kW=5.436729579526792 kvar=1.2488470964899614 Phases=1 yearly=res_kw_454_pu

New Load.load_p1ulv960_2 conn=wye bus1=p1ulv960.2 kV=0.12 Vminpu=0.8 Vmaxpu=1.2 model=1 kW=5.436729579526792 kvar=1.2488470964899614 Phases=1 yearly=res_kw_454_pu

New Load.load_p1ulv968_1 conn=wye bus1=p1ulv968.1 kV=0.12 Vminpu=0.8 Vmaxpu=1.2 model=1 kW=1.8914832317680952 kvar=0.4701288429802831 Phases=1 yearly=com_kw_13018_pu

New Load.load_p1ulv968_2 conn=wye bus1=p1ulv968.2 kV=0.12 Vminpu=0.8 Vmaxpu=1.2 model=1 kW=1.8914832317680952 kvar=0.4701288429802831 Phases=1 yearly=com_kw_13018_pu

New Load.load_p1ulv977_1 conn=wye bus1=p1ulv977.1 kV=0.12 Vminpu=0.8 Vmaxpu=1.2 model=1 kW=5.503617962261267 kvar=0.25931014748492 Phases=1 yearly=com_kw_14123_pu

New Load.load_p1ulv977_2 conn=wye bus1=p1ulv977.2 kV=0.12 Vminpu=0.8 Vmaxpu=1.2 model=1 kW=5.503617962261267 kvar=0.25931014748492 Phases=1 yearly=com_kw_14123_pu

New Load.load_p1ulv984_1 conn=wye bus1=p1ulv984.1 kV=0.12 Vminpu=0.8 Vmaxpu=1.2 model=1 kW=4.788649591238137 kvar=1.023651375705972 Phases=1 yearly=res_kw_512_pu

New Load.load_p1ulv984_2 conn=wye bus1=p1ulv984.2 kV=0.12 Vminpu=0.8 Vmaxpu=1.2 model=1 kW=4.788649591238137 kvar=1.023651375705972 Phases=1 yearly=res_kw_512_pu

New Load.load_p1ulv985_1 conn=wye bus1=p1ulv985.1 kV=0.12 Vminpu=0.8 Vmaxpu=1.2 model=1 kW=3.8029744718879392 kvar=1.1462670306842289 Phases=1 yearly=res_kw_263_pu

New Load.load_p1ulv985_2 conn=wye bus1=p1ulv985.2 kV=0.12 Vminpu=0.8 Vmaxpu=1.2 model=1 kW=3.8029744718879392 kvar=1.1462670306842289 Phases=1 yearly=res_kw_263_pu

New Load.load_p1ulv986_1 conn=wye bus1=p1ulv986.1 kV=0.12 Vminpu=0.8 Vmaxpu=1.2 model=1 kW=3.789884331965197 kvar=1.0036576715582408 Phases=1 yearly=res_kw_670_pu

New Load.load_p1ulv986_2 conn=wye bus1=p1ulv986.2 kV=0.12 Vminpu=0.8 Vmaxpu=1.2 model=1 kW=3.789884331965197 kvar=1.0036576715582408 Phases=1 yearly=res_kw_670_pu

New Load.load_p1ulv987_1 conn=wye bus1=p1ulv987.1 kV=0.12 Vminpu=0.8 Vmaxpu=1.2 model=1 kW=33.474430232152706 kvar=3.778119727772629 Phases=1 yearly=res_kw_653_pu

New Load.load_p1ulv987_2 conn=wye bus1=p1ulv987.2 kV=0.12 Vminpu=0.8 Vmaxpu=1.2 model=1 kW=33.474430232152706 kvar=3.778119727772629 Phases=1 yearly=res_kw_653_pu

New Load.load_p1ulv988_1 conn=wye bus1=p1ulv988.1 kV=0.12 Vminpu=0.8 Vmaxpu=1.2 model=1 kW=6.136100367362728 kvar=1.4521187609701354 Phases=1 yearly=res_kw_362_pu

New Load.load_p1ulv988_2 conn=wye bus1=p1ulv988.2 kV=0.12 Vminpu=0.8 Vmaxpu=1.2 model=1 kW=6.136100367362728 kvar=1.4521187609701354 Phases=1 yearly=res_kw_362_pu

New Load.load_p1ulv989_1 conn=wye bus1=p1ulv989.1 kV=0.12 Vminpu=0.8 Vmaxpu=1.2 model=1 kW=5.466651771327982 kvar=1.2745975671486984 Phases=1 yearly=res_kw_933_pu

New Load.load_p1ulv989_2 conn=wye bus1=p1ulv989.2 kV=0.12 Vminpu=0.8 Vmaxpu=1.2 model=1 kW=5.466651771327982 kvar=1.2745975671486984 Phases=1 yearly=res_kw_933_pu

New Load.load_p1ulv1000_1 conn=wye bus1=p1ulv1000.1 kV=0.12 Vminpu=0.8 Vmaxpu=1.2 model=1 kW=6.817372119943363 kvar=1.4609397499846581 Phases=1 yearly=res_kw_1015_pu

New Load.load_p1ulv1000_2 conn=wye bus1=p1ulv1000.2 kV=0.12 Vminpu=0.8 Vmaxpu=1.2 model=1 kW=6.817372119943363 kvar=1.4609397499846581 Phases=1 yearly=res_kw_1015_pu

New Load.load_p1ulv1001_1 conn=wye bus1=p1ulv1001.1 kV=0.12 Vminpu=0.8 Vmaxpu=1.2 model=1 kW=4.788649591238137 kvar=1.023651375705972 Phases=1 yearly=res_kw_512_pu

New Load.load_p1ulv1001_2 conn=wye bus1=p1ulv1001.2 kV=0.12 Vminpu=0.8 Vmaxpu=1.2 model=1 kW=4.788649591238137 kvar=1.023651375705972 Phases=1 yearly=res_kw_512_pu

New Load.load_p1ulv1002_1 conn=wye bus1=p1ulv1002.1 kV=0.12 Vminpu=0.8 Vmaxpu=1.2 model=1 kW=7.195337616187572 kvar=1.3536865792954904 Phases=1 yearly=res_kw_462_pu

New Load.load_p1ulv1002_2 conn=wye bus1=p1ulv1002.2 kV=0.12 Vminpu=0.8 Vmaxpu=1.2 model=1 kW=7.195337616187572 kvar=1.3536865792954904 Phases=1 yearly=res_kw_462_pu

New Load.load_p1ulv1003_1 conn=wye bus1=p1ulv1003.1 kV=0.12 Vminpu=0.8 Vmaxpu=1.2 model=1 kW=6.781528157055726 kvar=1.3939212369369844 Phases=1 yearly=res_kw_548_pu

New Load.load_p1ulv1003_2 conn=wye bus1=p1ulv1003.2 kV=0.12 Vminpu=0.8 Vmaxpu=1.2 model=1 kW=6.781528157055726 kvar=1.3939212369369844 Phases=1 yearly=res_kw_548_pu

New Load.load_p1ulv1004_1 conn=wye bus1=p1ulv1004.1 kV=0.12 Vminpu=0.8 Vmaxpu=1.2 model=1 kW=5.286987923172412 kvar=0.912918656895422 Phases=1 yearly=res_kw_75_pu

New Load.load_p1ulv1004_2 conn=wye bus1=p1ulv1004.2 kV=0.12 Vminpu=0.8 Vmaxpu=1.2 model=1 kW=5.286987923172412 kvar=0.912918656895422 Phases=1 yearly=res_kw_75_pu

New Load.load_p1ulv1007_1 conn=wye bus1=p1ulv1007.1 kV=0.12 Vminpu=0.8 Vmaxpu=1.2 model=1 kW=15.527800434841444 kvar=4.308184462676511 Phases=1 yearly=res_kw_897_pu

New Load.load_p1ulv1007_2 conn=wye bus1=p1ulv1007.2 kV=0.12 Vminpu=0.8 Vmaxpu=1.2 model=1 kW=15.527800434841444 kvar=4.308184462676511 Phases=1 yearly=res_kw_897_pu

New Load.load_p1ulv1009_1 conn=wye bus1=p1ulv1009.1 kV=0.12 Vminpu=0.8 Vmaxpu=1.2 model=1 kW=4.788649591238137 kvar=1.023651375705972 Phases=1 yearly=res_kw_512_pu

New Load.load_p1ulv1009_2 conn=wye bus1=p1ulv1009.2 kV=0.12 Vminpu=0.8 Vmaxpu=1.2 model=1 kW=4.788649591238137 kvar=1.023651375705972 Phases=1 yearly=res_kw_512_pu

New Load.load_p1ulv1010_1 conn=wye bus1=p1ulv1010.1 kV=0.12 Vminpu=0.8 Vmaxpu=1.2 model=1 kW=4.16464238338737 kvar=0.9759614008792458 Phases=1 yearly=res_kw_968_pu

New Load.load_p1ulv1010_2 conn=wye bus1=p1ulv1010.2 kV=0.12 Vminpu=0.8 Vmaxpu=1.2 model=1 kW=4.16464238338737 kvar=0.9759614008792458 Phases=1 yearly=res_kw_968_pu

New Load.load_p1ulv1011_1 conn=wye bus1=p1ulv1011.1 kV=0.12 Vminpu=0.8 Vmaxpu=1.2 model=1 kW=3.789884331965197 kvar=1.0036576715582408 Phases=1 yearly=res_kw_670_pu

New Load.load_p1ulv1011_2 conn=wye bus1=p1ulv1011.2 kV=0.12 Vminpu=0.8 Vmaxpu=1.2 model=1 kW=3.789884331965197 kvar=1.0036576715582408 Phases=1 yearly=res_kw_670_pu

New Load.load_p1ulv1013_1 conn=wye bus1=p1ulv1013.1 kV=0.12 Vminpu=0.8 Vmaxpu=1.2 model=1 kW=3.789884331965197 kvar=1.0036576715582408 Phases=1 yearly=res_kw_670_pu

New Load.load_p1ulv1013_2 conn=wye bus1=p1ulv1013.2 kV=0.12 Vminpu=0.8 Vmaxpu=1.2 model=1 kW=3.789884331965197 kvar=1.0036576715582408 Phases=1 yearly=res_kw_670_pu

New Load.load_p1ulv1014_1 conn=wye bus1=p1ulv1014.1 kV=0.12 Vminpu=0.8 Vmaxpu=1.2 model=1 kW=4.666080754031652 kvar=0.9704814918535188 Phases=1 yearly=res_kw_280_pu

New Load.load_p1ulv1014_2 conn=wye bus1=p1ulv1014.2 kV=0.12 Vminpu=0.8 Vmaxpu=1.2 model=1 kW=4.666080754031652 kvar=0.9704814918535188 Phases=1 yearly=res_kw_280_pu

New Load.load_p1ulv1015_1 conn=wye bus1=p1ulv1015.1 kV=0.12 Vminpu=0.8 Vmaxpu=1.2 model=1 kW=3.9108438598579216 kvar=0.8203267338659331 Phases=1 yearly=res_kw_1177_pu

New Load.load_p1ulv1015_2 conn=wye bus1=p1ulv1015.2 kV=0.12 Vminpu=0.8 Vmaxpu=1.2 model=1 kW=3.9108438598579216 kvar=0.8203267338659331 Phases=1 yearly=res_kw_1177_pu

New Load.load_p1ulv1016_1 conn=wye bus1=p1ulv1016.1 kV=0.12 Vminpu=0.8 Vmaxpu=1.2 model=1 kW=3.3641909207712115 kvar=0.9284266244461494 Phases=1 yearly=res_kw_523_pu

New Load.load_p1ulv1016_2 conn=wye bus1=p1ulv1016.2 kV=0.12 Vminpu=0.8 Vmaxpu=1.2 model=1 kW=3.3641909207712115 kvar=0.9284266244461494 Phases=1 yearly=res_kw_523_pu

New Load.load_p1ulv1017_1 conn=wye bus1=p1ulv1017.1 kV=0.12 Vminpu=0.8 Vmaxpu=1.2 model=1 kW=2.916803644387601 kvar=0.11499518252231355 Phases=1 yearly=res_kw_1094_pu

New Load.load_p1ulv1017_2 conn=wye bus1=p1ulv1017.2 kV=0.12 Vminpu=0.8 Vmaxpu=1.2 model=1 kW=2.916803644387601 kvar=0.11499518252231355 Phases=1 yearly=res_kw_1094_pu

New Load.load_p1ulv1018_1 conn=wye bus1=p1ulv1018.1 kV=0.12 Vminpu=0.8 Vmaxpu=1.2 model=1 kW=5.466651771327982 kvar=1.2745975671486984 Phases=1 yearly=res_kw_933_pu

New Load.load_p1ulv1018_2 conn=wye bus1=p1ulv1018.2 kV=0.12 Vminpu=0.8 Vmaxpu=1.2 model=1 kW=5.466651771327982 kvar=1.2745975671486984 Phases=1 yearly=res_kw_933_pu

New Load.load_p1ulv1019_1 conn=wye bus1=p1ulv1019.1 kV=0.12 Vminpu=0.8 Vmaxpu=1.2 model=1 kW=6.520159505202592 kvar=1.1378587223610979 Phases=1 yearly=res_kw_879_pu

New Load.load_p1ulv1019_2 conn=wye bus1=p1ulv1019.2 kV=0.12 Vminpu=0.8 Vmaxpu=1.2 model=1 kW=6.520159505202592 kvar=1.1378587223610979 Phases=1 yearly=res_kw_879_pu

New Load.load_p1ulv1020_1 conn=wye bus1=p1ulv1020.1 kV=0.12 Vminpu=0.8 Vmaxpu=1.2 model=1 kW=11.457721527492426 kvar=1.3801854390555242 Phases=1 yearly=res_kw_861_pu

New Load.load_p1ulv1020_2 conn=wye bus1=p1ulv1020.2 kV=0.12 Vminpu=0.8 Vmaxpu=1.2 model=1 kW=11.457721527492426 kvar=1.3801854390555242 Phases=1 yearly=res_kw_861_pu

New Load.load_p1ulv1021_1 conn=wye bus1=p1ulv1021.1 kV=0.12 Vminpu=0.8 Vmaxpu=1.2 model=1 kW=3.6844020253442458 kvar=1.4451491397155931 Phases=1 yearly=res_kw_1258_pu

New Load.load_p1ulv1021_2 conn=wye bus1=p1ulv1021.2 kV=0.12 Vminpu=0.8 Vmaxpu=1.2 model=1 kW=3.6844020253442458 kvar=1.4451491397155931 Phases=1 yearly=res_kw_1258_pu

New Load.load_p1ulv1022_1 conn=wye bus1=p1ulv1022.1 kV=0.12 Vminpu=0.8 Vmaxpu=1.2 model=1 kW=2.1376631749204993 kvar=0.6218033466021168 Phases=1 yearly=res_kw_93_pu

New Load.load_p1ulv1022_2 conn=wye bus1=p1ulv1022.2 kV=0.12 Vminpu=0.8 Vmaxpu=1.2 model=1 kW=2.1376631749204993 kvar=0.6218033466021168 Phases=1 yearly=res_kw_93_pu

New Load.load_p1ulv1790_1 conn=wye bus1=p1ulv1790.1 kV=0.12 Vminpu=0.8 Vmaxpu=1.2 model=1 kW=4.666080754031652 kvar=0.9704814918535188 Phases=1 yearly=res_kw_280_pu

New Load.load_p1ulv1790_2 conn=wye bus1=p1ulv1790.2 kV=0.12 Vminpu=0.8 Vmaxpu=1.2 model=1 kW=4.666080754031652 kvar=0.9704814918535188 Phases=1 yearly=res_kw_280_pu

New Load.load_p1ulv1791_1 conn=wye bus1=p1ulv1791.1 kV=0.12 Vminpu=0.8 Vmaxpu=1.2 model=1 kW=5.675346369339635 kvar=1.238985226090579 Phases=1 yearly=res_kw_1186_pu

New Load.load_p1ulv1791_2 conn=wye bus1=p1ulv1791.2 kV=0.12 Vminpu=0.8 Vmaxpu=1.2 model=1 kW=5.675346369339635 kvar=1.238985226090579 Phases=1 yearly=res_kw_1186_pu

New Load.load_p1ulv1794_1 conn=wye bus1=p1ulv1794.1 kV=0.12 Vminpu=0.8 Vmaxpu=1.2 model=1 kW=6.136100367362728 kvar=1.4521187609701354 Phases=1 yearly=res_kw_362_pu

New Load.load_p1ulv1794_2 conn=wye bus1=p1ulv1794.2 kV=0.12 Vminpu=0.8 Vmaxpu=1.2 model=1 kW=6.136100367362728 kvar=1.4521187609701354 Phases=1 yearly=res_kw_362_pu

New Load.load_p1ulv1797_1 conn=wye bus1=p1ulv1797.1 kV=0.12 Vminpu=0.8 Vmaxpu=1.2 model=1 kW=3.789884331965197 kvar=1.0036576715582408 Phases=1 yearly=res_kw_670_pu

New Load.load_p1ulv1797_2 conn=wye bus1=p1ulv1797.2 kV=0.12 Vminpu=0.8 Vmaxpu=1.2 model=1 kW=3.789884331965197 kvar=1.0036576715582408 Phases=1 yearly=res_kw_670_pu

New Load.load_p1ulv1809 conn=wye bus1=p1ulv1809.1.2.3 kV=0.48 Vminpu=0.8 Vmaxpu=1.2 model=1 kW=19.607915171145514 kvar=5.168221822813155 Phases=3 yearly=com_kw_15238_pu

New Load.load_p1ulv2593_1 conn=wye bus1=p1ulv2593.1 kV=0.12 Vminpu=0.8 Vmaxpu=1.2 model=1 kW=4.788649591238137 kvar=1.023651375705972 Phases=1 yearly=res_kw_512_pu

New Load.load_p1ulv2593_2 conn=wye bus1=p1ulv2593.2 kV=0.12 Vminpu=0.8 Vmaxpu=1.2 model=1 kW=4.788649591238137 kvar=1.023651375705972 Phases=1 yearly=res_kw_512_pu

New Load.load_p1ulv2594_1 conn=wye bus1=p1ulv2594.1 kV=0.12 Vminpu=0.8 Vmaxpu=1.2 model=1 kW=3.3701610259235064 kvar=1.065454990641787 Phases=1 yearly=res_kw_1037_pu

New Load.load_p1ulv2594_2 conn=wye bus1=p1ulv2594.2 kV=0.12 Vminpu=0.8 Vmaxpu=1.2 model=1 kW=3.3701610259235064 kvar=1.065454990641787 Phases=1 yearly=res_kw_1037_pu

New Load.load_p1ulv2595_1 conn=wye bus1=p1ulv2595.1 kV=0.12 Vminpu=0.8 Vmaxpu=1.2 model=1 kW=3.3641909207712115 kvar=0.9284266244461494 Phases=1 yearly=res_kw_523_pu

New Load.load_p1ulv2595_2 conn=wye bus1=p1ulv2595.2 kV=0.12 Vminpu=0.8 Vmaxpu=1.2 model=1 kW=3.3641909207712115 kvar=0.9284266244461494 Phases=1 yearly=res_kw_523_pu

New Load.load_p1ulv2596_1 conn=wye bus1=p1ulv2596.1 kV=0.12 Vminpu=0.8 Vmaxpu=1.2 model=1 kW=6.2419949477893475 kvar=3.2518916743102033 Phases=1 yearly=res_kw_748_pu

New Load.load_p1ulv2596_2 conn=wye bus1=p1ulv2596.2 kV=0.12 Vminpu=0.8 Vmaxpu=1.2 model=1 kW=6.2419949477893475 kvar=3.2518916743102033 Phases=1 yearly=res_kw_748_pu

New Load.load_p1ulv2597_1 conn=wye bus1=p1ulv2597.1 kV=0.12 Vminpu=0.8 Vmaxpu=1.2 model=1 kW=8.01962100453296 kvar=1.9011506674959975 Phases=1 yearly=res_kw_380_pu

New Load.load_p1ulv2597_2 conn=wye bus1=p1ulv2597.2 kV=0.12 Vminpu=0.8 Vmaxpu=1.2 model=1 kW=8.01962100453296 kvar=1.9011506674959975 Phases=1 yearly=res_kw_380_pu

New Load.load_p1ulv2598_1 conn=wye bus1=p1ulv2598.1 kV=0.12 Vminpu=0.8 Vmaxpu=1.2 model=1 kW=6.2419949477893475 kvar=3.2518916743102033 Phases=1 yearly=res_kw_748_pu

New Load.load_p1ulv2598_2 conn=wye bus1=p1ulv2598.2 kV=0.12 Vminpu=0.8 Vmaxpu=1.2 model=1 kW=6.2419949477893475 kvar=3.2518916743102033 Phases=1 yearly=res_kw_748_pu

New Load.load_p1ulv2599_1 conn=wye bus1=p1ulv2599.1 kV=0.12 Vminpu=0.8 Vmaxpu=1.2 model=1 kW=8.01962100453296 kvar=1.9011506674959975 Phases=1 yearly=res_kw_380_pu

New Load.load_p1ulv2599_2 conn=wye bus1=p1ulv2599.2 kV=0.12 Vminpu=0.8 Vmaxpu=1.2 model=1 kW=8.01962100453296 kvar=1.9011506674959975 Phases=1 yearly=res_kw_380_pu

New Load.load_p1ulv2600_1 conn=wye bus1=p1ulv2600.1 kV=0.12 Vminpu=0.8 Vmaxpu=1.2 model=1 kW=6.2419949477893475 kvar=3.2518916743102033 Phases=1 yearly=res_kw_748_pu

New Load.load_p1ulv2600_2 conn=wye bus1=p1ulv2600.2 kV=0.12 Vminpu=0.8 Vmaxpu=1.2 model=1 kW=6.2419949477893475 kvar=3.2518916743102033 Phases=1 yearly=res_kw_748_pu

New Load.load_p1ulv2601_1 conn=wye bus1=p1ulv2601.1 kV=0.12 Vminpu=0.8 Vmaxpu=1.2 model=1 kW=7.935406333880378 kvar=2.9734713630513365 Phases=1 yearly=res_kw_272_pu

New Load.load_p1ulv2601_2 conn=wye bus1=p1ulv2601.2 kV=0.12 Vminpu=0.8 Vmaxpu=1.2 model=1 kW=7.935406333880378 kvar=2.9734713630513365 Phases=1 yearly=res_kw_272_pu

New Load.load_p1ulv2602_1 conn=wye bus1=p1ulv2602.1 kV=0.12 Vminpu=0.8 Vmaxpu=1.2 model=1 kW=8.01962100453296 kvar=1.9011506674959975 Phases=1 yearly=res_kw_380_pu

New Load.load_p1ulv2602_2 conn=wye bus1=p1ulv2602.2 kV=0.12 Vminpu=0.8 Vmaxpu=1.2 model=1 kW=8.01962100453296 kvar=1.9011506674959975 Phases=1 yearly=res_kw_380_pu

New Load.load_p1ulv2603_1 conn=wye bus1=p1ulv2603.1 kV=0.12 Vminpu=0.8 Vmaxpu=1.2 model=1 kW=6.817372119943363 kvar=1.4609397499846581 Phases=1 yearly=res_kw_1015_pu

New Load.load_p1ulv2603_2 conn=wye bus1=p1ulv2603.2 kV=0.12 Vminpu=0.8 Vmaxpu=1.2 model=1 kW=6.817372119943363 kvar=1.4609397499846581 Phases=1 yearly=res_kw_1015_pu

New Load.load_p1ulv2604_1 conn=wye bus1=p1ulv2604.1 kV=0.12 Vminpu=0.8 Vmaxpu=1.2 model=1 kW=3.460037762068802 kvar=0.6117019426679855 Phases=1 yearly=res_kw_205_pu

New Load.load_p1ulv2604_2 conn=wye bus1=p1ulv2604.2 kV=0.12 Vminpu=0.8 Vmaxpu=1.2 model=1 kW=3.460037762068802 kvar=0.6117019426679855 Phases=1 yearly=res_kw_205_pu

New Load.load_p1ulv2605_1 conn=wye bus1=p1ulv2605.1 kV=0.12 Vminpu=0.8 Vmaxpu=1.2 model=1 kW=6.817994061838357 kvar=0.9100697715919355 Phases=1 yearly=res_kw_1099_pu

New Load.load_p1ulv2605_2 conn=wye bus1=p1ulv2605.2 kV=0.12 Vminpu=0.8 Vmaxpu=1.2 model=1 kW=6.817994061838357 kvar=0.9100697715919355 Phases=1 yearly=res_kw_1099_pu

New Load.load_p1ulv3434_1 conn=wye bus1=p1ulv3434.1 kV=0.12 Vminpu=0.8 Vmaxpu=1.2 model=1 kW=3.963001053413761 kvar=0.9410786890170905 Phases=1 yearly=res_kw_1256_pu

New Load.load_p1ulv3434_2 conn=wye bus1=p1ulv3434.2 kV=0.12 Vminpu=0.8 Vmaxpu=1.2 model=1 kW=3.963001053413761 kvar=0.9410786890170905 Phases=1 yearly=res_kw_1256_pu

New Load.load_p1ulv3435_1 conn=wye bus1=p1ulv3435.1 kV=0.12 Vminpu=0.8 Vmaxpu=1.2 model=1 kW=2.0903747651596376 kvar=0.7957076388263523 Phases=1 yearly=res_kw_1223_pu

New Load.load_p1ulv3435_2 conn=wye bus1=p1ulv3435.2 kV=0.12 Vminpu=0.8 Vmaxpu=1.2 model=1 kW=2.0903747651596376 kvar=0.7957076388263523 Phases=1 yearly=res_kw_1223_pu

New Load.load_p1ulv3436_1 conn=wye bus1=p1ulv3436.1 kV=0.12 Vminpu=0.8 Vmaxpu=1.2 model=1 kW=7.151603169892386 kvar=1.493762478537685 Phases=1 yearly=res_kw_30_pu

New Load.load_p1ulv3436_2 conn=wye bus1=p1ulv3436.2 kV=0.12 Vminpu=0.8 Vmaxpu=1.2 model=1 kW=7.151603169892386 kvar=1.493762478537685 Phases=1 yearly=res_kw_30_pu

New Load.load_p1ulv3437_1 conn=wye bus1=p1ulv3437.1 kV=0.12 Vminpu=0.8 Vmaxpu=1.2 model=1 kW=3.0349278195989244 kvar=0.5508172290988972 Phases=1 yearly=res_kw_1112_pu

New Load.load_p1ulv3437_2 conn=wye bus1=p1ulv3437.2 kV=0.12 Vminpu=0.8 Vmaxpu=1.2 model=1 kW=3.0349278195989244 kvar=0.5508172290988972 Phases=1 yearly=res_kw_1112_pu

New Load.load_p1ulv3438_1 conn=wye bus1=p1ulv3438.1 kV=0.12 Vminpu=0.8 Vmaxpu=1.2 model=1 kW=2.9178485115923896 kvar=1.0715119122844614 Phases=1 yearly=res_kw_1149_pu

New Load.load_p1ulv3438_2 conn=wye bus1=p1ulv3438.2 kV=0.12 Vminpu=0.8 Vmaxpu=1.2 model=1 kW=2.9178485115923896 kvar=1.0715119122844614 Phases=1 yearly=res_kw_1149_pu

New Load.load_p1ulv5309_1 conn=wye bus1=p1ulv5309.1 kV=0.12 Vminpu=0.8 Vmaxpu=1.2 model=1 kW=2.6241521841182514 kvar=0.8429304779950015 Phases=1 yearly=res_kw_33_pu

New Load.load_p1ulv5309_2 conn=wye bus1=p1ulv5309.2 kV=0.12 Vminpu=0.8 Vmaxpu=1.2 model=1 kW=2.6241521841182514 kvar=0.8429304779950015 Phases=1 yearly=res_kw_33_pu

New Load.load_p1ulv5310_1 conn=wye bus1=p1ulv5310.1 kV=0.12 Vminpu=0.8 Vmaxpu=1.2 model=1 kW=2.605021030189827 kvar=1.0007509371876184 Phases=1 yearly=res_kw_24_pu

New Load.load_p1ulv5310_2 conn=wye bus1=p1ulv5310.2 kV=0.12 Vminpu=0.8 Vmaxpu=1.2 model=1 kW=2.605021030189827 kvar=1.0007509371876184 Phases=1 yearly=res_kw_24_pu

New Load.load_p1ulv5311_1 conn=wye bus1=p1ulv5311.1 kV=0.12 Vminpu=0.8 Vmaxpu=1.2 model=1 kW=1.8618983584330409 kvar=0.7337589993741062 Phases=1 yearly=res_kw_141_pu

New Load.load_p1ulv5311_2 conn=wye bus1=p1ulv5311.2 kV=0.12 Vminpu=0.8 Vmaxpu=1.2 model=1 kW=1.8618983584330409 kvar=0.7337589993741062 Phases=1 yearly=res_kw_141_pu

New Load.load_p1ulv5312_1 conn=wye bus1=p1ulv5312.1 kV=0.12 Vminpu=0.8 Vmaxpu=1.2 model=1 kW=2.1376631749204993 kvar=0.6218033466021168 Phases=1 yearly=res_kw_93_pu

New Load.load_p1ulv5312_2 conn=wye bus1=p1ulv5312.2 kV=0.12 Vminpu=0.8 Vmaxpu=1.2 model=1 kW=2.1376631749204993 kvar=0.6218033466021168 Phases=1 yearly=res_kw_93_pu

New Load.load_p1ulv5789_1 conn=wye bus1=p1ulv5789.1 kV=0.12 Vminpu=0.8 Vmaxpu=1.2 model=1 kW=2.9178485115923896 kvar=1.0715119122844614 Phases=1 yearly=res_kw_1149_pu

New Load.load_p1ulv5789_2 conn=wye bus1=p1ulv5789.2 kV=0.12 Vminpu=0.8 Vmaxpu=1.2 model=1 kW=2.9178485115923896 kvar=1.0715119122844614 Phases=1 yearly=res_kw_1149_pu

New Load.load_p1ulv5790_1 conn=wye bus1=p1ulv5790.1 kV=0.12 Vminpu=0.8 Vmaxpu=1.2 model=1 kW=2.9178485115923896 kvar=1.0715119122844614 Phases=1 yearly=res_kw_1149_pu

New Load.load_p1ulv5790_2 conn=wye bus1=p1ulv5790.2 kV=0.12 Vminpu=0.8 Vmaxpu=1.2 model=1 kW=2.9178485115923896 kvar=1.0715119122844614 Phases=1 yearly=res_kw_1149_pu

New Load.load_p1ulv5791_1 conn=wye bus1=p1ulv5791.1 kV=0.12 Vminpu=0.8 Vmaxpu=1.2 model=1 kW=2.9178485115923896 kvar=1.0715119122844614 Phases=1 yearly=res_kw_1149_pu

New Load.load_p1ulv5791_2 conn=wye bus1=p1ulv5791.2 kV=0.12 Vminpu=0.8 Vmaxpu=1.2 model=1 kW=2.9178485115923896 kvar=1.0715119122844614 Phases=1 yearly=res_kw_1149_pu

New Load.load_p1ulv5792_1 conn=wye bus1=p1ulv5792.1 kV=0.12 Vminpu=0.8 Vmaxpu=1.2 model=1 kW=7.151603169892386 kvar=1.493762478537685 Phases=1 yearly=res_kw_30_pu

New Load.load_p1ulv5792_2 conn=wye bus1=p1ulv5792.2 kV=0.12 Vminpu=0.8 Vmaxpu=1.2 model=1 kW=7.151603169892386 kvar=1.493762478537685 Phases=1 yearly=res_kw_30_pu

New Load.load_p1ulv5793_1 conn=wye bus1=p1ulv5793.1 kV=0.12 Vminpu=0.8 Vmaxpu=1.2 model=1 kW=1.8883480354683608 kvar=0.7466800149503461 Phases=1 yearly=res_kw_715_pu

New Load.load_p1ulv5793_2 conn=wye bus1=p1ulv5793.2 kV=0.12 Vminpu=0.8 Vmaxpu=1.2 model=1 kW=1.8883480354683608 kvar=0.7466800149503461 Phases=1 yearly=res_kw_715_pu

New Load.load_p1ulv5794_1 conn=wye bus1=p1ulv5794.1 kV=0.12 Vminpu=0.8 Vmaxpu=1.2 model=1 kW=2.0903747651596376 kvar=0.7957076388263523 Phases=1 yearly=res_kw_1223_pu

New Load.load_p1ulv5794_2 conn=wye bus1=p1ulv5794.2 kV=0.12 Vminpu=0.8 Vmaxpu=1.2 model=1 kW=2.0903747651596376 kvar=0.7957076388263523 Phases=1 yearly=res_kw_1223_pu

New Load.load_p1ulv5795_1 conn=wye bus1=p1ulv5795.1 kV=0.12 Vminpu=0.8 Vmaxpu=1.2 model=1 kW=2.0903747651596376 kvar=0.7957076388263523 Phases=1 yearly=res_kw_1223_pu

New Load.load_p1ulv5795_2 conn=wye bus1=p1ulv5795.2 kV=0.12 Vminpu=0.8 Vmaxpu=1.2 model=1 kW=2.0903747651596376 kvar=0.7957076388263523 Phases=1 yearly=res_kw_1223_pu

New Load.load_p1ulv5796_1 conn=wye bus1=p1ulv5796.1 kV=0.12 Vminpu=0.8 Vmaxpu=1.2 model=1 kW=1.6746299650392789 kvar=0.594727774010976 Phases=1 yearly=res_kw_1276_pu

New Load.load_p1ulv5796_2 conn=wye bus1=p1ulv5796.2 kV=0.12 Vminpu=0.8 Vmaxpu=1.2 model=1 kW=1.6746299650392789 kvar=0.594727774010976 Phases=1 yearly=res_kw_1276_pu

New Load.load_p1ulv5797_1 conn=wye bus1=p1ulv5797.1 kV=0.12 Vminpu=0.8 Vmaxpu=1.2 model=1 kW=5.873352103240601 kvar=1.0950545410002186 Phases=1 yearly=res_kw_675_pu

New Load.load_p1ulv5797_2 conn=wye bus1=p1ulv5797.2 kV=0.12 Vminpu=0.8 Vmaxpu=1.2 model=1 kW=5.873352103240601 kvar=1.0950545410002186 Phases=1 yearly=res_kw_675_pu
