New Load.load_p1ulv764_1 conn=wye bus1=p1ulv764.1 kV=0.12 Vminpu=0.8 Vmaxpu=1.2 model=1 kW=5.84752037424176 kvar=1.0171323789661466 Phases=1 yearly=res_kw_793_pu

New Load.load_p1ulv764_2 conn=wye bus1=p1ulv764.2 kV=0.12 Vminpu=0.8 Vmaxpu=1.2 model=1 kW=5.84752037424176 kvar=1.0171323789661466 Phases=1 yearly=res_kw_793_pu

New Load.load_p1ulv765 conn=wye bus1=p1ulv765.1.2.3 kV=0.48 Vminpu=0.8 Vmaxpu=1.2 model=1 kW=40.942981916270845 kvar=12.738632234961589 Phases=3 yearly=com_kw_14701_pu

New Load.load_p1ulv766_1 conn=wye bus1=p1ulv766.1 kV=0.12 Vminpu=0.8 Vmaxpu=1.2 model=1 kW=2.0380250144225394 kvar=0.5847764991219453 Phases=1 yearly=com_kw_15124_pu

New Load.load_p1ulv766_2 conn=wye bus1=p1ulv766.2 kV=0.12 Vminpu=0.8 Vmaxpu=1.2 model=1 kW=2.0380250144225394 kvar=0.5847764991219453 Phases=1 yearly=com_kw_15124_pu

New Load.load_p1ulv767_1 conn=wye bus1=p1ulv767.1 kV=0.12 Vminpu=0.8 Vmaxpu=1.2 model=1 kW=3.2230723959373018 kvar=0.13338129174872024 Phases=1 yearly=com_kw_14257_pu

New Load.load_p1ulv767_2 conn=wye bus1=p1ulv767.2 kV=0.12 Vminpu=0.8 Vmaxpu=1.2 model=1 kW=3.2230723959373018 kvar=0.13338129174872024 Phases=1 yearly=com_kw_14257_pu

New Load.load_p1ulv768_1 conn=wye bus1=p1ulv768.1 kV=0.12 Vminpu=0.8 Vmaxpu=1.2 model=1 kW=1.8413982632457628 kvar=0.4913074890993267 Phases=1 yearly=com_kw_13875_pu

New Load.load_p1ulv768_2 conn=wye bus1=p1ulv768.2 kV=0.12 Vminpu=0.8 Vmaxpu=1.2 model=1 kW=1.8413982632457628 kvar=0.4913074890993267 Phases=1 yearly=com_kw_13875_pu

New Load.load_p1ulv769_1 conn=wye bus1=p1ulv769.1 kV=0.12 Vminpu=0.8 Vmaxpu=1.2 model=1 kW=2.5979078005670297 kvar=0.7783347543086586 Phases=1 yearly=com_kw_13164_pu

New Load.load_p1ulv769_2 conn=wye bus1=p1ulv769.2 kV=0.12 Vminpu=0.8 Vmaxpu=1.2 model=1 kW=2.5979078005670297 kvar=0.7783347543086586 Phases=1 yearly=com_kw_13164_pu

New Load.load_p1ulv770_1 conn=wye bus1=p1ulv770.1 kV=0.12 Vminpu=0.8 Vmaxpu=1.2 model=1 kW=1.8914832317680952 kvar=0.4701288429802831 Phases=1 yearly=com_kw_13018_pu

New Load.load_p1ulv770_2 conn=wye bus1=p1ulv770.2 kV=0.12 Vminpu=0.8 Vmaxpu=1.2 model=1 kW=1.8914832317680952 kvar=0.4701288429802831 Phases=1 yearly=com_kw_13018_pu

New Load.load_p1ulv771_1 conn=wye bus1=p1ulv771.1 kV=0.12 Vminpu=0.8 Vmaxpu=1.2 model=1 kW=1.9038750316582675 kvar=0.5392511078342896 Phases=1 yearly=com_kw_13025_pu

New Load.load_p1ulv771_2 conn=wye bus1=p1ulv771.2 kV=0.12 Vminpu=0.8 Vmaxpu=1.2 model=1 kW=1.9038750316582675 kvar=0.5392511078342896 Phases=1 yearly=com_kw_13025_pu

New Load.load_p1ulv772_1 conn=wye bus1=p1ulv772.1 kV=0.12 Vminpu=0.8 Vmaxpu=1.2 model=1 kW=2.290290333423244 kvar=0.6734319095477642 Phases=1 yearly=com_kw_13833_pu

New Load.load_p1ulv772_2 conn=wye bus1=p1ulv772.2 kV=0.12 Vminpu=0.8 Vmaxpu=1.2 model=1 kW=2.290290333423244 kvar=0.6734319095477642 Phases=1 yearly=com_kw_13833_pu

New Load.load_p1ulv773_1 conn=wye bus1=p1ulv772.1 kV=0.12 Vminpu=0.8 Vmaxpu=1.2 model=1 kW=2.0313586656693827 kvar=0.5942635047770736 Phases=1 yearly=com_kw_13386_pu

New Load.load_p1ulv773_2 conn=wye bus1=p1ulv772.2 kV=0.12 Vminpu=0.8 Vmaxpu=1.2 model=1 kW=2.0313586656693827 kvar=0.5942635047770736 Phases=1 yearly=com_kw_13386_pu

New Load.load_p1ulv774_1 conn=wye bus1=p1ulv774.1 kV=0.12 Vminpu=0.8 Vmaxpu=1.2 model=1 kW=1.8914832317680952 kvar=0.4701288429802831 Phases=1 yearly=com_kw_13018_pu

New Load.load_p1ulv774_2 conn=wye bus1=p1ulv774.2 kV=0.12 Vminpu=0.8 Vmaxpu=1.2 model=1 kW=1.8914832317680952 kvar=0.4701288429802831 Phases=1 yearly=com_kw_13018_pu

New Load.load_p1ulv775_1 conn=wye bus1=p1ulv775.1 kV=0.12 Vminpu=0.8 Vmaxpu=1.2 model=1 kW=1.8914832317680952 kvar=0.4701288429802831 Phases=1 yearly=com_kw_13018_pu

New Load.load_p1ulv775_2 conn=wye bus1=p1ulv775.2 kV=0.12 Vminpu=0.8 Vmaxpu=1.2 model=1 kW=1.8914832317680952 kvar=0.4701288429802831 Phases=1 yearly=com_kw_13018_pu

New Load.load_p1ulv776_1 conn=wye bus1=p1ulv776.1 kV=0.12 Vminpu=0.8 Vmaxpu=1.2 model=1 kW=2.134373343667251 kvar=0.5986590434975299 Phases=1 yearly=com_kw_14612_pu

New Load.load_p1ulv776_2 conn=wye bus1=p1ulv776.2 kV=0.12 Vminpu=0.8 Vmaxpu=1.2 model=1 kW=2.134373343667251 kvar=0.5986590434975299 Phases=1 yearly=com_kw_14612_pu

New Load.load_p1ulv777_1 conn=wye bus1=p1ulv777.1 kV=0.12 Vminpu=0.8 Vmaxpu=1.2 model=1 kW=4.642179748908938 kvar=0.176462268654847 Phases=1 yearly=com_kw_15157_pu

New Load.load_p1ulv777_2 conn=wye bus1=p1ulv777.2 kV=0.12 Vminpu=0.8 Vmaxpu=1.2 model=1 kW=4.642179748908938 kvar=0.176462268654847 Phases=1 yearly=com_kw_15157_pu

New Load.load_p1ulv778_1 conn=wye bus1=p1ulv778.1 kV=0.12 Vminpu=0.8 Vmaxpu=1.2 model=1 kW=1.8914832317680952 kvar=0.4701288429802831 Phases=1 yearly=com_kw_13018_pu

New Load.load_p1ulv778_2 conn=wye bus1=p1ulv778.2 kV=0.12 Vminpu=0.8 Vmaxpu=1.2 model=1 kW=1.8914832317680952 kvar=0.4701288429802831 Phases=1 yearly=com_kw_13018_pu

New Load.load_p1ulv779_1 conn=wye bus1=p1ulv779.1 kV=0.12 Vminpu=0.8 Vmaxpu=1.2 model=1 kW=4.589231411483642 kvar=0.1871715682789368 Phases=1 yearly=com_kw_13515_pu

New Load.load_p1ulv779_2 conn=wye bus1=p1ulv779.2 kV=0.12 Vminpu=0.8 Vmaxpu=1.2 model=1 kW=4.589231411483642 kvar=0.1871715682789368 Phases=1 yearly=com_kw_13515_pu

New Load.load_p1ulv780_1 conn=wye bus1=p1ulv780.1 kV=0.12 Vminpu=0.8 Vmaxpu=1.2 model=1 kW=5.2342602505249465 kvar=0.03192958905801793 Phases=1 yearly=com_kw_13109_pu

New Load.load_p1ulv780_2 conn=wye bus1=p1ulv780.2 kV=0.12 Vminpu=0.8 Vmaxpu=1.2 model=1 kW=5.2342602505249465 kvar=0.03192958905801793 Phases=1 yearly=com_kw_13109_pu

New Load.load_p1ulv781_1 conn=wye bus1=p1ulv781.1 kV=0.12 Vminpu=0.8 Vmaxpu=1.2 model=1 kW=2.465496051676302 kvar=0.5881407747231531 Phases=1 yearly=com_kw_13121_pu

New Load.load_p1ulv781_2 conn=wye bus1=p1ulv781.2 kV=0.12 Vminpu=0.8 Vmaxpu=1.2 model=1 kW=2.465496051676302 kvar=0.5881407747231531 Phases=1 yearly=com_kw_13121_pu

New Load.load_p1ulv782_1 conn=wye bus1=p1ulv782.1 kV=0.12 Vminpu=0.8 Vmaxpu=1.2 model=1 kW=4.737995147424034 kvar=0.27793880247771546 Phases=1 yearly=com_kw_14277_pu

New Load.load_p1ulv782_2 conn=wye bus1=p1ulv782.2 kV=0.12 Vminpu=0.8 Vmaxpu=1.2 model=1 kW=4.737995147424034 kvar=0.27793880247771546 Phases=1 yearly=com_kw_14277_pu

New Load.load_p1ulv826_1 conn=wye bus1=p1ulv826.1 kV=0.12 Vminpu=0.8 Vmaxpu=1.2 model=1 kW=4.792624300749482 kvar=1.1139407265067676 Phases=1 yearly=res_kw_898_pu

New Load.load_p1ulv826_2 conn=wye bus1=p1ulv826.2 kV=0.12 Vminpu=0.8 Vmaxpu=1.2 model=1 kW=4.792624300749482 kvar=1.1139407265067676 Phases=1 yearly=res_kw_898_pu

New Load.load_p1ulv827_1 conn=wye bus1=p1ulv827.1 kV=0.12 Vminpu=0.8 Vmaxpu=1.2 model=1 kW=3.9060227283575606 kvar=0.8578020352767629 Phases=1 yearly=res_kw_278_pu

New Load.load_p1ulv827_2 conn=wye bus1=p1ulv827.2 kV=0.12 Vminpu=0.8 Vmaxpu=1.2 model=1 kW=3.9060227283575606 kvar=0.8578020352767629 Phases=1 yearly=res_kw_278_pu

New Load.load_p1ulv828_1 conn=wye bus1=p1ulv828.1 kV=0.12 Vminpu=0.8 Vmaxpu=1.2 model=1 kW=5.436729579526792 kvar=1.2488470964899614 Phases=1 yearly=res_kw_454_pu

New Load.load_p1ulv828_2 conn=wye bus1=p1ulv828.2 kV=0.12 Vminpu=0.8 Vmaxpu=1.2 model=1 kW=5.436729579526792 kvar=1.2488470964899614 Phases=1 yearly=res_kw_454_pu

New Load.load_p1ulv901_1 conn=wye bus1=p1ulv901.1 kV=0.12 Vminpu=0.8 Vmaxpu=1.2 model=1 kW=1.8618983584330409 kvar=0.7337589993741062 Phases=1 yearly=res_kw_141_pu

New Load.load_p1ulv901_2 conn=wye bus1=p1ulv901.2 kV=0.12 Vminpu=0.8 Vmaxpu=1.2 model=1 kW=1.8618983584330409 kvar=0.7337589993741062 Phases=1 yearly=res_kw_141_pu

New Load.load_p1ulv946_1 conn=wye bus1=p1ulv946.1 kV=0.12 Vminpu=0.8 Vmaxpu=1.2 model=1 kW=4.817618468644212 kvar=1.1350426223715635 Phases=1 yearly=res_kw_843_pu

New Load.load_p1ulv946_2 conn=wye bus1=p1ulv946.2 kV=0.12 Vminpu=0.8 Vmaxpu=1.2 model=1 kW=4.817618468644212 kvar=1.1350426223715635 Phases=1 yearly=res_kw_843_pu

New Load.load_p1ulv947_1 conn=wye bus1=p1ulv947.1 kV=0.12 Vminpu=0.8 Vmaxpu=1.2 model=1 kW=5.675346369339635 kvar=1.238985226090579 Phases=1 yearly=res_kw_1186_pu

New Load.load_p1ulv947_2 conn=wye bus1=p1ulv947.2 kV=0.12 Vminpu=0.8 Vmaxpu=1.2 model=1 kW=5.675346369339635 kvar=1.238985226090579 Phases=1 yearly=res_kw_1186_pu

New Load.load_p1ulv948_1 conn=wye bus1=p1ulv948.1 kV=0.12 Vminpu=0.8 Vmaxpu=1.2 model=1 kW=3.963001053413761 kvar=0.9410786890170905 Phases=1 yearly=res_kw_1256_pu

New Load.load_p1ulv948_2 conn=wye bus1=p1ulv948.2 kV=0.12 Vminpu=0.8 Vmaxpu=1.2 model=1 kW=3.963001053413761 kvar=0.9410786890170905 Phases=1 yearly=res_kw_1256_pu

New Load.load_p1ulv949_1 conn=wye bus1=p1ulv949.1 kV=0.12 Vminpu=0.8 Vmaxpu=1.2 model=1 kW=2.1376631749204993 kvar=0.6218033466021168 Phases=1 yearly=res_kw_93_pu

New Load.load_p1ulv949_2 conn=wye bus1=p1ulv949.2 kV=0.12 Vminpu=0.8 Vmaxpu=1.2 model=1 kW=2.1376631749204993 kvar=0.6218033466021168 Phases=1 yearly=res_kw_93_pu

New Load.load_p1ulv950_1 conn=wye bus1=p1ulv950.1 kV=0.12 Vminpu=0.8 Vmaxpu=1.2 model=1 kW=6.897997484512368 kvar=1.5073573946072503 Phases=1 yearly=res_kw_40_pu

New Load.load_p1ulv950_2 conn=wye bus1=p1ulv950.2 kV=0.12 Vminpu=0.8 Vmaxpu=1.2 model=1 kW=6.897997484512368 kvar=1.5073573946072503 Phases=1 yearly=res_kw_40_pu

New Load.load_p1ulv951_1 conn=wye bus1=p1ulv951.1 kV=0.12 Vminpu=0.8 Vmaxpu=1.2 model=1 kW=7.935406333880378 kvar=2.9734713630513365 Phases=1 yearly=res_kw_272_pu

New Load.load_p1ulv951_2 conn=wye bus1=p1ulv951.2 kV=0.12 Vminpu=0.8 Vmaxpu=1.2 model=1 kW=7.935406333880378 kvar=2.9734713630513365 Phases=1 yearly=res_kw_272_pu

New Load.load_p1ulv952_1 conn=wye bus1=p1ulv952.1 kV=0.12 Vminpu=0.8 Vmaxpu=1.2 model=1 kW=5.772584848285176 kvar=1.3225757839012733 Phases=1 yearly=res_kw_599_pu

New Load.load_p1ulv952_2 conn=wye bus1=p1ulv952.2 kV=0.12 Vminpu=0.8 Vmaxpu=1.2 model=1 kW=5.772584848285176 kvar=1.3225757839012733 Phases=1 yearly=res_kw_599_pu

New Load.load_p1ulv953_1 conn=wye bus1=p1ulv953.1 kV=0.12 Vminpu=0.8 Vmaxpu=1.2 model=1 kW=3.54827828334215 kvar=0.8621749365625682 Phases=1 yearly=res_kw_739_pu

New Load.load_p1ulv953_2 conn=wye bus1=p1ulv953.2 kV=0.12 Vminpu=0.8 Vmaxpu=1.2 model=1 kW=3.54827828334215 kvar=0.8621749365625682 Phases=1 yearly=res_kw_739_pu

New Load.load_p1ulv954_1 conn=wye bus1=p1ulv954.1 kV=0.12 Vminpu=0.8 Vmaxpu=1.2 model=1 kW=2.6241521841182514 kvar=0.8429304779950015 Phases=1 yearly=res_kw_33_pu

New Load.load_p1ulv954_2 conn=wye bus1=p1ulv954.2 kV=0.12 Vminpu=0.8 Vmaxpu=1.2 model=1 kW=2.6241521841182514 kvar=0.8429304779950015 Phases=1 yearly=res_kw_33_pu

New Load.load_p1ulv955_1 conn=wye bus1=p1ulv955.1 kV=0.12 Vminpu=0.8 Vmaxpu=1.2 model=1 kW=18.487291050551754 kvar=3.8726939013399893 Phases=1 yearly=res_kw_271_pu

New Load.load_p1ulv955_2 conn=wye bus1=p1ulv955.2 kV=0.12 Vminpu=0.8 Vmaxpu=1.2 model=1 kW=18.487291050551754 kvar=3.8726939013399893 Phases=1 yearly=res_kw_271_pu

New Load.load_p1ulv956_1 conn=wye bus1=p1ulv956.1 kV=0.12 Vminpu=0.8 Vmaxpu=1.2 model=1 kW=5.2700301388011015 kvar=0.34790018828686164 Phases=1 yearly=com_kw_13502_pu

New Load.load_p1ulv956_2 conn=wye bus1=p1ulv956.2 kV=0.12 Vminpu=0.8 Vmaxpu=1.2 model=1 kW=5.2700301388011015 kvar=0.34790018828686164 Phases=1 yearly=com_kw_13502_pu

New Load.load_p1ulv957_1 conn=wye bus1=p1ulv957.1 kV=0.12 Vminpu=0.8 Vmaxpu=1.2 model=1 kW=2.9178485115923896 kvar=1.0715119122844614 Phases=1 yearly=res_kw_1149_pu

New Load.load_p1ulv957_2 conn=wye bus1=p1ulv957.2 kV=0.12 Vminpu=0.8 Vmaxpu=1.2 model=1 kW=2.9178485115923896 kvar=1.0715119122844614 Phases=1 yearly=res_kw_1149_pu

New Load.load_p1ulv959_1 conn=wye bus1=p1ulv959.1 kV=0.12 Vminpu=0.8 Vmaxpu=1.2 model=1 kW=2.9178485115923896 kvar=1.0715119122844614 Phases=1 yearly=res_kw_1149_pu

New Load.load_p1ulv959_2 conn=wye bus1=p1ulv959.2 kV=0.12 Vminpu=0.8 Vmaxpu=1.2 model=1 kW=2.9178485115923896 kvar=1.0715119122844614 Phases=1 yearly=res_kw_1149_pu

New Load.load_p1ulv961 conn=wye bus1=p1ulv961.1.2.3 kV=0.48 Vminpu=0.8 Vmaxpu=1.2 model=1 kW=26.51952642079597 kvar=0.11385122851191025 Phases=3 yearly=res_kw_736_pu

New Load.load_p1ulv962_1 conn=wye bus1=p1ulv962.1 kV=0.12 Vminpu=0.8 Vmaxpu=1.2 model=1 kW=2.605021030189827 kvar=1.0007509371876184 Phases=1 yearly=res_kw_24_pu

New Load.load_p1ulv962_2 conn=wye bus1=p1ulv962.2 kV=0.12 Vminpu=0.8 Vmaxpu=1.2 model=1 kW=2.605021030189827 kvar=1.0007509371876184 Phases=1 yearly=res_kw_24_pu

New Load.load_p1ulv963_1 conn=wye bus1=p1ulv963.1 kV=0.12 Vminpu=0.8 Vmaxpu=1.2 model=1 kW=3.6844020253442458 kvar=1.4451491397155931 Phases=1 yearly=res_kw_1258_pu

New Load.load_p1ulv963_2 conn=wye bus1=p1ulv963.2 kV=0.12 Vminpu=0.8 Vmaxpu=1.2 model=1 kW=3.6844020253442458 kvar=1.4451491397155931 Phases=1 yearly=res_kw_1258_pu

New Load.load_p1ulv964_1 conn=wye bus1=p1ulv964.1 kV=0.12 Vminpu=0.8 Vmaxpu=1.2 model=1 kW=3.963001053413761 kvar=0.9410786890170905 Phases=1 yearly=res_kw_1256_pu

New Load.load_p1ulv964_2 conn=wye bus1=p1ulv964.2 kV=0.12 Vminpu=0.8 Vmaxpu=1.2 model=1 kW=3.963001053413761 kvar=0.9410786890170905 Phases=1 yearly=res_kw_1256_pu

New Load.load_p1ulv965 conn=wye bus1=p1ulv965.1.2.3 kV=0.48 Vminpu=0.8 Vmaxpu=1.2 model=1 kW=130.0805568207113 kvar=27.423896960169706 Phases=3 yearly=com_kw_14106_pu

New Load.load_p1ulv966 conn=wye bus1=p1ulv966.1.2.3 kV=0.48 Vminpu=0.8 Vmaxpu=1.2 model=1 kW=37.027150730515146 kvar=8.45406563355403 Phases=3 yearly=res_kw_558_pu

New Load.load_p1ulv967_1 conn=wye bus1=p1ulv967.1 kV=0.12 Vminpu=0.8 Vmaxpu=1.2 model=1 kW=1.8413982632457628 kvar=0.4913074890993267 Phases=1 yearly=com_kw_13875_pu

New Load.load_p1ulv967_2 conn=wye bus1=p1ulv967.2 kV=0.12 Vminpu=0.8 Vmaxpu=1.2 model=1 kW=1.8413982632457628 kvar=0.4913074890993267 Phases=1 yearly=com_kw_13875_pu

New Load.load_p1ulv969_1 conn=wye bus1=p1ulv969.1 kV=0.12 Vminpu=0.8 Vmaxpu=1.2 model=1 kW=1.8775078991445364 kvar=0.511706884096551 Phases=1 yearly=com_kw_14932_pu

New Load.load_p1ulv969_2 conn=wye bus1=p1ulv969.2 kV=0.12 Vminpu=0.8 Vmaxpu=1.2 model=1 kW=1.8775078991445364 kvar=0.511706884096551 Phases=1 yearly=com_kw_14932_pu

New Load.load_p1ulv970_1 conn=wye bus1=p1ulv970.1 kV=0.12 Vminpu=0.8 Vmaxpu=1.2 model=1 kW=7.7578735794910925 kvar=1.9049941012910125 Phases=1 yearly=res_kw_863_pu

New Load.load_p1ulv970_2 conn=wye bus1=p1ulv970.2 kV=0.12 Vminpu=0.8 Vmaxpu=1.2 model=1 kW=7.7578735794910925 kvar=1.9049941012910125 Phases=1 yearly=res_kw_863_pu

New Load.load_p1ulv971_1 conn=wye bus1=p1ulv971.1 kV=0.12 Vminpu=0.8 Vmaxpu=1.2 model=1 kW=13.251431311430247 kvar=0.1493407165487586 Phases=1 yearly=com_kw_14976_pu

New Load.load_p1ulv971_2 conn=wye bus1=p1ulv971.2 kV=0.12 Vminpu=0.8 Vmaxpu=1.2 model=1 kW=13.251431311430247 kvar=0.1493407165487586 Phases=1 yearly=com_kw_14976_pu

New Load.load_p1ulv972_1 conn=wye bus1=p1ulv972.1 kV=0.12 Vminpu=0.8 Vmaxpu=1.2 model=1 kW=2.605021030189827 kvar=1.0007509371876184 Phases=1 yearly=res_kw_24_pu

New Load.load_p1ulv972_2 conn=wye bus1=p1ulv972.2 kV=0.12 Vminpu=0.8 Vmaxpu=1.2 model=1 kW=2.605021030189827 kvar=1.0007509371876184 Phases=1 yearly=res_kw_24_pu

New Load.load_p1ulv973_1 conn=wye bus1=p1ulv973.1 kV=0.12 Vminpu=0.8 Vmaxpu=1.2 model=1 kW=13.251431311430247 kvar=0.1493407165487586 Phases=1 yearly=com_kw_14976_pu

New Load.load_p1ulv973_2 conn=wye bus1=p1ulv973.2 kV=0.12 Vminpu=0.8 Vmaxpu=1.2 model=1 kW=13.251431311430247 kvar=0.1493407165487586 Phases=1 yearly=com_kw_14976_pu

New Load.load_p1ulv974_1 conn=wye bus1=p1ulv974.1 kV=0.12 Vminpu=0.8 Vmaxpu=1.2 model=1 kW=2.242446440461792 kvar=0.599196925582727 Phases=1 yearly=com_kw_14904_pu

New Load.load_p1ulv974_2 conn=wye bus1=p1ulv974.2 kV=0.12 Vminpu=0.8 Vmaxpu=1.2 model=1 kW=2.242446440461792 kvar=0.599196925582727 Phases=1 yearly=com_kw_14904_pu

New Load.load_p1ulv975_1 conn=wye bus1=p1ulv975.1 kV=0.12 Vminpu=0.8 Vmaxpu=1.2 model=1 kW=2.106221163205376 kvar=0.5551261969742401 Phases=1 yearly=com_kw_13342_pu

New Load.load_p1ulv975_2 conn=wye bus1=p1ulv975.2 kV=0.12 Vminpu=0.8 Vmaxpu=1.2 model=1 kW=2.106221163205376 kvar=0.5551261969742401 Phases=1 yearly=com_kw_13342_pu

New Load.load_p1ulv976_1 conn=wye bus1=p1ulv976.1 kV=0.12 Vminpu=0.8 Vmaxpu=1.2 model=1 kW=1.8413982632457628 kvar=0.4913074890993267 Phases=1 yearly=com_kw_13875_pu

New Load.load_p1ulv976_2 conn=wye bus1=p1ulv976.2 kV=0.12 Vminpu=0.8 Vmaxpu=1.2 model=1 kW=1.8413982632457628 kvar=0.4913074890993267 Phases=1 yearly=com_kw_13875_pu

New Load.load_p1ulv978_1 conn=wye bus1=p1ulv978.1 kV=0.12 Vminpu=0.8 Vmaxpu=1.2 model=1 kW=5.096065176353652 kvar=0.20326988307277757 Phases=1 yearly=com_kw_14723_pu

New Load.load_p1ulv978_2 conn=wye bus1=p1ulv978.2 kV=0.12 Vminpu=0.8 Vmaxpu=1.2 model=1 kW=5.096065176353652 kvar=0.20326988307277757 Phases=1 yearly=com_kw_14723_pu

New Load.load_p1ulv979_1 conn=wye bus1=p1ulv979.1 kV=0.12 Vminpu=0.8 Vmaxpu=1.2 model=1 kW=13.251431311430247 kvar=0.1493407165487586 Phases=1 yearly=com_kw_14976_pu

New Load.load_p1ulv979_2 conn=wye bus1=p1ulv979.2 kV=0.12 Vminpu=0.8 Vmaxpu=1.2 model=1 kW=13.251431311430247 kvar=0.1493407165487586 Phases=1 yearly=com_kw_14976_pu

New Load.load_p1ulv980_1 conn=wye bus1=p1ulv980.1 kV=0.12 Vminpu=0.8 Vmaxpu=1.2 model=1 kW=1.8914832317680952 kvar=0.4701288429802831 Phases=1 yearly=com_kw_13018_pu

New Load.load_p1ulv980_2 conn=wye bus1=p1ulv980.2 kV=0.12 Vminpu=0.8 Vmaxpu=1.2 model=1 kW=1.8914832317680952 kvar=0.4701288429802831 Phases=1 yearly=com_kw_13018_pu

New Load.load_p1ulv981_1 conn=wye bus1=p1ulv981.1 kV=0.12 Vminpu=0.8 Vmaxpu=1.2 model=1 kW=1.8914832317680952 kvar=0.4701288429802831 Phases=1 yearly=com_kw_13018_pu

New Load.load_p1ulv981_2 conn=wye bus1=p1ulv981.2 kV=0.12 Vminpu=0.8 Vmaxpu=1.2 model=1 kW=1.8914832317680952 kvar=0.4701288429802831 Phases=1 yearly=com_kw_13018_pu

New Load.load_p1ulv982_1 conn=wye bus1=p1ulv982.1 kV=0.12 Vminpu=0.8 Vmaxpu=1.2 model=1 kW=2.0380250144225394 kvar=0.5847764991219453 Phases=1 yearly=com_kw_15124_pu

New Load.load_p1ulv982_2 conn=wye bus1=p1ulv982.2 kV=0.12 Vminpu=0.8 Vmaxpu=1.2 model=1 kW=2.0380250144225394 kvar=0.5847764991219453 Phases=1 yearly=com_kw_15124_pu

New Load.load_p1ulv983_1 conn=wye bus1=p1ulv983.1 kV=0.12 Vminpu=0.8 Vmaxpu=1.2 model=1 kW=2.465496051676302 kvar=0.5881407747231531 Phases=1 yearly=com_kw_13121_pu

New Load.load_p1ulv983_2 conn=wye bus1=p1ulv983.2 kV=0.12 Vminpu=0.8 Vmaxpu=1.2 model=1 kW=2.465496051676302 kvar=0.5881407747231531 Phases=1 yearly=com_kw_13121_pu

New Load.load_p1ulv2770_1 conn=wye bus1=p1ulv2770.1 kV=0.12 Vminpu=0.8 Vmaxpu=1.2 model=1 kW=1.8636614682402992 kvar=0.5015179682387616 Phases=1 yearly=res_kw_532_pu

New Load.load_p1ulv2770_2 conn=wye bus1=p1ulv2770.2 kV=0.12 Vminpu=0.8 Vmaxpu=1.2 model=1 kW=1.8636614682402992 kvar=0.5015179682387616 Phases=1 yearly=res_kw_532_pu

New Load.load_p1ulv2771_1 conn=wye bus1=p1ulv2771.1 kV=0.12 Vminpu=0.8 Vmaxpu=1.2 model=1 kW=9.341738473663403 kvar=2.018548151169967 Phases=1 yearly=res_kw_504_pu

New Load.load_p1ulv2771_2 conn=wye bus1=p1ulv2771.2 kV=0.12 Vminpu=0.8 Vmaxpu=1.2 model=1 kW=9.341738473663403 kvar=2.018548151169967 Phases=1 yearly=res_kw_504_pu

New Load.load_p1ulv2772_1 conn=wye bus1=p1ulv2772.1 kV=0.12 Vminpu=0.8 Vmaxpu=1.2 model=1 kW=4.4719654544990375 kvar=1.0992469987144322 Phases=1 yearly=res_kw_1157_pu

New Load.load_p1ulv2772_2 conn=wye bus1=p1ulv2772.2 kV=0.12 Vminpu=0.8 Vmaxpu=1.2 model=1 kW=4.4719654544990375 kvar=1.0992469987144322 Phases=1 yearly=res_kw_1157_pu

New Load.load_p1ulv2773_1 conn=wye bus1=p1ulv2773.1 kV=0.12 Vminpu=0.8 Vmaxpu=1.2 model=1 kW=4.4719654544990375 kvar=1.0992469987144322 Phases=1 yearly=res_kw_1157_pu

New Load.load_p1ulv2773_2 conn=wye bus1=p1ulv2773.2 kV=0.12 Vminpu=0.8 Vmaxpu=1.2 model=1 kW=4.4719654544990375 kvar=1.0992469987144322 Phases=1 yearly=res_kw_1157_pu

New Load.load_p1ulv2776_1 conn=wye bus1=p1ulv2776.1 kV=0.12 Vminpu=0.8 Vmaxpu=1.2 model=1 kW=2.40000228705824 kvar=1.0173787262529668 Phases=1 yearly=res_kw_1205_pu

New Load.load_p1ulv2776_2 conn=wye bus1=p1ulv2776.2 kV=0.12 Vminpu=0.8 Vmaxpu=1.2 model=1 kW=2.40000228705824 kvar=1.0173787262529668 Phases=1 yearly=res_kw_1205_pu

New Load.load_p1ulv2777_1 conn=wye bus1=p1ulv2777.1 kV=0.12 Vminpu=0.8 Vmaxpu=1.2 model=1 kW=9.341738473663403 kvar=2.018548151169967 Phases=1 yearly=res_kw_504_pu

New Load.load_p1ulv2777_2 conn=wye bus1=p1ulv2777.2 kV=0.12 Vminpu=0.8 Vmaxpu=1.2 model=1 kW=9.341738473663403 kvar=2.018548151169967 Phases=1 yearly=res_kw_504_pu

New Load.load_p1ulv2778_1 conn=wye bus1=p1ulv2778.1 kV=0.12 Vminpu=0.8 Vmaxpu=1.2 model=1 kW=3.514038245319737 kvar=0.28269583311839436 Phases=1 yearly=com_kw_14842_pu

New Load.load_p1ulv2778_2 conn=wye bus1=p1ulv2778.2 kV=0.12 Vminpu=0.8 Vmaxpu=1.2 model=1 kW=3.514038245319737 kvar=0.28269583311839436 Phases=1 yearly=com_kw_14842_pu

New Load.load_p1ulv2779_1 conn=wye bus1=p1ulv2779.1 kV=0.12 Vminpu=0.8 Vmaxpu=1.2 model=1 kW=3.963001053413761 kvar=0.9410786890170905 Phases=1 yearly=res_kw_1256_pu

New Load.load_p1ulv2779_2 conn=wye bus1=p1ulv2779.2 kV=0.12 Vminpu=0.8 Vmaxpu=1.2 model=1 kW=3.963001053413761 kvar=0.9410786890170905 Phases=1 yearly=res_kw_1256_pu

New Load.load_p1ulv2782_1 conn=wye bus1=p1ulv2782.1 kV=0.12 Vminpu=0.8 Vmaxpu=1.2 model=1 kW=7.820072877358693 kvar=1.759853089528969 Phases=1 yearly=res_kw_97_pu

New Load.load_p1ulv2782_2 conn=wye bus1=p1ulv2782.2 kV=0.12 Vminpu=0.8 Vmaxpu=1.2 model=1 kW=7.820072877358693 kvar=1.759853089528969 Phases=1 yearly=res_kw_97_pu

New Load.load_p1ulv2783_1 conn=wye bus1=p1ulv2783.1 kV=0.12 Vminpu=0.8 Vmaxpu=1.2 model=1 kW=3.4468581914223817 kvar=1.1411197390818253 Phases=1 yearly=res_kw_250_pu

New Load.load_p1ulv2783_2 conn=wye bus1=p1ulv2783.2 kV=0.12 Vminpu=0.8 Vmaxpu=1.2 model=1 kW=3.4468581914223817 kvar=1.1411197390818253 Phases=1 yearly=res_kw_250_pu

New Load.load_p1ulv2784_1 conn=wye bus1=p1ulv2784.1 kV=0.12 Vminpu=0.8 Vmaxpu=1.2 model=1 kW=4.658663502989286 kvar=1.3388389434895354 Phases=1 yearly=res_kw_182_pu

New Load.load_p1ulv2784_2 conn=wye bus1=p1ulv2784.2 kV=0.12 Vminpu=0.8 Vmaxpu=1.2 model=1 kW=4.658663502989286 kvar=1.3388389434895354 Phases=1 yearly=res_kw_182_pu

New Load.load_p1ulv9539_1 conn=wye bus1=p1ulv9539.1 kV=0.12 Vminpu=0.8 Vmaxpu=1.2 model=1 kW=4.788649591238137 kvar=1.023651375705972 Phases=1 yearly=res_kw_512_pu

New Load.load_p1ulv9539_2 conn=wye bus1=p1ulv9539.2 kV=0.12 Vminpu=0.8 Vmaxpu=1.2 model=1 kW=4.788649591238137 kvar=1.023651375705972 Phases=1 yearly=res_kw_512_pu

New Load.load_p1ulv9540_1 conn=wye bus1=p1ulv9540.1 kV=0.12 Vminpu=0.8 Vmaxpu=1.2 model=1 kW=2.605021030189827 kvar=1.0007509371876184 Phases=1 yearly=res_kw_24_pu

New Load.load_p1ulv9540_2 conn=wye bus1=p1ulv9540.2 kV=0.12 Vminpu=0.8 Vmaxpu=1.2 model=1 kW=2.605021030189827 kvar=1.0007509371876184 Phases=1 yearly=res_kw_24_pu

New Load.load_p1ulv9541_1 conn=wye bus1=p1ulv9541.1 kV=0.12 Vminpu=0.8 Vmaxpu=1.2 model=1 kW=2.658027342573646 kvar=0.9113625924854422 Phases=1 yearly=res_kw_1105_pu

New Load.load_p1ulv9541_2 conn=wye bus1=p1ulv9541.2 kV=0.12 Vminpu=0.8 Vmaxpu=1.2 model=1 kW=2.658027342573646 kvar=0.9113625924854422 Phases=1 yearly=res_kw_1105_pu

New Load.load_p1ulv9542_1 conn=wye bus1=p1ulv9542.1 kV=0.12 Vminpu=0.8 Vmaxpu=1.2 model=1 kW=7.195337616187572 kvar=1.3536865792954904 Phases=1 yearly=res_kw_462_pu

New Load.load_p1ulv9542_2 conn=wye bus1=p1ulv9542.2 kV=0.12 Vminpu=0.8 Vmaxpu=1.2 model=1 kW=7.195337616187572 kvar=1.3536865792954904 Phases=1 yearly=res_kw_462_pu

New Load.load_p1ulv9543_1 conn=wye bus1=p1ulv9543.1 kV=0.12 Vminpu=0.8 Vmaxpu=1.2 model=1 kW=4.788649591238137 kvar=1.023651375705972 Phases=1 yearly=res_kw_512_pu

New Load.load_p1ulv9543_2 conn=wye bus1=p1ulv9543.2 kV=0.12 Vminpu=0.8 Vmaxpu=1.2 model=1 kW=4.788649591238137 kvar=1.023651375705972 Phases=1 yearly=res_kw_512_pu

New Load.load_p1ulv9544_1 conn=wye bus1=p1ulv9544.1 kV=0.12 Vminpu=0.8 Vmaxpu=1.2 model=1 kW=5.4313165050257775 kvar=1.3233518473888222 Phases=1 yearly=res_kw_355_pu

New Load.load_p1ulv9544_2 conn=wye bus1=p1ulv9544.2 kV=0.12 Vminpu=0.8 Vmaxpu=1.2 model=1 kW=5.4313165050257775 kvar=1.3233518473888222 Phases=1 yearly=res_kw_355_pu

New Load.load_p1ulv9545_1 conn=wye bus1=p1ulv9545.1 kV=0.12 Vminpu=0.8 Vmaxpu=1.2 model=1 kW=2.605021030189827 kvar=1.0007509371876184 Phases=1 yearly=res_kw_24_pu

New Load.load_p1ulv9545_2 conn=wye bus1=p1ulv9545.2 kV=0.12 Vminpu=0.8 Vmaxpu=1.2 model=1 kW=2.605021030189827 kvar=1.0007509371876184 Phases=1 yearly=res_kw_24_pu

New Load.load_p1ulv9546_1 conn=wye bus1=p1ulv9545.1 kV=0.12 Vminpu=0.8 Vmaxpu=1.2 model=1 kW=2.623267981089487 kvar=1.212519304398851 Phases=1 yearly=res_kw_452_pu

New Load.load_p1ulv9546_2 conn=wye bus1=p1ulv9545.2 kV=0.12 Vminpu=0.8 Vmaxpu=1.2 model=1 kW=2.623267981089487 kvar=1.212519304398851 Phases=1 yearly=res_kw_452_pu

New Load.load_p1ulv9547_1 conn=wye bus1=p1ulv9547.1 kV=0.12 Vminpu=0.8 Vmaxpu=1.2 model=1 kW=2.605021030189827 kvar=1.0007509371876184 Phases=1 yearly=res_kw_24_pu

New Load.load_p1ulv9547_2 conn=wye bus1=p1ulv9547.2 kV=0.12 Vminpu=0.8 Vmaxpu=1.2 model=1 kW=2.605021030189827 kvar=1.0007509371876184 Phases=1 yearly=res_kw_24_pu

New Load.load_p1ulv9548_1 conn=wye bus1=p1ulv9548.1 kV=0.12 Vminpu=0.8 Vmaxpu=1.2 model=1 kW=2.605021030189827 kvar=1.0007509371876184 Phases=1 yearly=res_kw_24_pu

New Load.load_p1ulv9548_2 conn=wye bus1=p1ulv9548.2 kV=0.12 Vminpu=0.8 Vmaxpu=1.2 model=1 kW=2.605021030189827 kvar=1.0007509371876184 Phases=1 yearly=res_kw_24_pu

New Load.load_p1ulv9549_1 conn=wye bus1=p1ulv9549.1 kV=0.12 Vminpu=0.8 Vmaxpu=1.2 model=1 kW=4.788649591238137 kvar=1.023651375705972 Phases=1 yearly=res_kw_512_pu

New Load.load_p1ulv9549_2 conn=wye bus1=p1ulv9549.2 kV=0.12 Vminpu=0.8 Vmaxpu=1.2 model=1 kW=4.788649591238137 kvar=1.023651375705972 Phases=1 yearly=res_kw_512_pu

New Load.load_p1ulv9550_1 conn=wye bus1=p1ulv9550.1 kV=0.12 Vminpu=0.8 Vmaxpu=1.2 model=1 kW=5.675346369339635 kvar=1.238985226090579 Phases=1 yearly=res_kw_1186_pu

New Load.load_p1ulv9550_2 conn=wye bus1=p1ulv9550.2 kV=0.12 Vminpu=0.8 Vmaxpu=1.2 model=1 kW=5.675346369339635 kvar=1.238985226090579 Phases=1 yearly=res_kw_1186_pu

New Load.load_p1ulv9551_1 conn=wye bus1=p1ulv9551.1 kV=0.12 Vminpu=0.8 Vmaxpu=1.2 model=1 kW=2.1376631749204993 kvar=0.6218033466021168 Phases=1 yearly=res_kw_93_pu

New Load.load_p1ulv9551_2 conn=wye bus1=p1ulv9551.2 kV=0.12 Vminpu=0.8 Vmaxpu=1.2 model=1 kW=2.1376631749204993 kvar=0.6218033466021168 Phases=1 yearly=res_kw_93_pu

New Load.load_p1ulv9552_1 conn=wye bus1=p1ulv9552.1 kV=0.12 Vminpu=0.8 Vmaxpu=1.2 model=1 kW=3.3701610259235064 kvar=1.065454990641787 Phases=1 yearly=res_kw_1037_pu

New Load.load_p1ulv9552_2 conn=wye bus1=p1ulv9552.2 kV=0.12 Vminpu=0.8 Vmaxpu=1.2 model=1 kW=3.3701610259235064 kvar=1.065454990641787 Phases=1 yearly=res_kw_1037_pu

New Load.load_p1ulv9553_1 conn=wye bus1=p1ulv9553.1 kV=0.12 Vminpu=0.8 Vmaxpu=1.2 model=1 kW=7.195337616187572 kvar=1.3536865792954904 Phases=1 yearly=res_kw_462_pu

New Load.load_p1ulv9553_2 conn=wye bus1=p1ulv9553.2 kV=0.12 Vminpu=0.8 Vmaxpu=1.2 model=1 kW=7.195337616187572 kvar=1.3536865792954904 Phases=1 yearly=res_kw_462_pu

New Load.load_p1ulv9554_1 conn=wye bus1=p1ulv9554.1 kV=0.12 Vminpu=0.8 Vmaxpu=1.2 model=1 kW=4.788649591238137 kvar=1.023651375705972 Phases=1 yearly=res_kw_512_pu

New Load.load_p1ulv9554_2 conn=wye bus1=p1ulv9554.2 kV=0.12 Vminpu=0.8 Vmaxpu=1.2 model=1 kW=4.788649591238137 kvar=1.023651375705972 Phases=1 yearly=res_kw_512_pu

New Load.load_p1ulv9555_1 conn=wye bus1=p1ulv9555.1 kV=0.12 Vminpu=0.8 Vmaxpu=1.2 model=1 kW=2.1376631749204993 kvar=0.6218033466021168 Phases=1 yearly=res_kw_93_pu

New Load.load_p1ulv9555_2 conn=wye bus1=p1ulv9555.2 kV=0.12 Vminpu=0.8 Vmaxpu=1.2 model=1 kW=2.1376631749204993 kvar=0.6218033466021168 Phases=1 yearly=res_kw_93_pu

New Load.load_p1ulv9556_1 conn=wye bus1=p1ulv9556.1 kV=0.12 Vminpu=0.8 Vmaxpu=1.2 model=1 kW=2.605021030189827 kvar=1.0007509371876184 Phases=1 yearly=res_kw_24_pu

New Load.load_p1ulv9556_2 conn=wye bus1=p1ulv9556.2 kV=0.12 Vminpu=0.8 Vmaxpu=1.2 model=1 kW=2.605021030189827 kvar=1.0007509371876184 Phases=1 yearly=res_kw_24_pu

New Load.load_p1ulv9557_1 conn=wye bus1=p1ulv9557.1 kV=0.12 Vminpu=0.8 Vmaxpu=1.2 model=1 kW=5.675346369339635 kvar=1.238985226090579 Phases=1 yearly=res_kw_1186_pu

New Load.load_p1ulv9557_2 conn=wye bus1=p1ulv9557.2 kV=0.12 Vminpu=0.8 Vmaxpu=1.2 model=1 kW=5.675346369339635 kvar=1.238985226090579 Phases=1 yearly=res_kw_1186_pu

New Load.load_p1ulv9558_1 conn=wye bus1=p1ulv9558.1 kV=0.12 Vminpu=0.8 Vmaxpu=1.2 model=1 kW=8.447919937810639 kvar=4.074999759912348 Phases=1 yearly=res_kw_461_pu

New Load.load_p1ulv9558_2 conn=wye bus1=p1ulv9558.2 kV=0.12 Vminpu=0.8 Vmaxpu=1.2 model=1 kW=8.447919937810639 kvar=4.074999759912348 Phases=1 yearly=res_kw_461_pu

New Load.load_p1ulv9559_1 conn=wye bus1=p1ulv9559.1 kV=0.12 Vminpu=0.8 Vmaxpu=1.2 model=1 kW=2.605021030189827 kvar=1.0007509371876184 Phases=1 yearly=res_kw_24_pu

New Load.load_p1ulv9559_2 conn=wye bus1=p1ulv9559.2 kV=0.12 Vminpu=0.8 Vmaxpu=1.2 model=1 kW=2.605021030189827 kvar=1.0007509371876184 Phases=1 yearly=res_kw_24_pu

New Load.load_p1ulv9560_1 conn=wye bus1=p1ulv9560.1 kV=0.12 Vminpu=0.8 Vmaxpu=1.2 model=1 kW=2.1376631749204993 kvar=0.6218033466021168 Phases=1 yearly=res_kw_93_pu

New Load.load_p1ulv9560_2 conn=wye bus1=p1ulv9560.2 kV=0.12 Vminpu=0.8 Vmaxpu=1.2 model=1 kW=2.1376631749204993 kvar=0.6218033466021168 Phases=1 yearly=res_kw_93_pu

New Load.load_p1ulv9561_1 conn=wye bus1=p1ulv9561.1 kV=0.12 Vminpu=0.8 Vmaxpu=1.2 model=1 kW=2.605021030189827 kvar=1.0007509371876184 Phases=1 yearly=res_kw_24_pu

New Load.load_p1ulv9561_2 conn=wye bus1=p1ulv9561.2 kV=0.12 Vminpu=0.8 Vmaxpu=1.2 model=1 kW=2.605021030189827 kvar=1.0007509371876184 Phases=1 yearly=res_kw_24_pu

New Load.load_p1ulv9562_1 conn=wye bus1=p1ulv9562.1 kV=0.12 Vminpu=0.8 Vmaxpu=1.2 model=1 kW=5.675346369339635 kvar=1.238985226090579 Phases=1 yearly=res_kw_1186_pu

New Load.load_p1ulv9562_2 conn=wye bus1=p1ulv9562.2 kV=0.12 Vminpu=0.8 Vmaxpu=1.2 model=1 kW=5.675346369339635 kvar=1.238985226090579 Phases=1 yearly=res_kw_1186_pu
