New Loadshape.GSO_35.9984_-79.9153_45_225 npts= 35040 interval=0.25 mult = (file=../../../../../profiles/GSO_35.9984_-79.9153_45_225.csv)

New Loadshape.GSO_35.9984_-79.9153_45_270 npts= 35040 interval=0.25 mult = (file=../../../../../profiles/GSO_35.9984_-79.9153_45_270.csv)

New Loadshape.GSO_36.0352_-79.9153_25_90 npts= 35040 interval=0.25 mult = (file=../../../../../profiles/GSO_36.0352_-79.9153_25_90.csv)

New Loadshape.GSO_36.0352_-79.9153_35_180 npts= 35040 interval=0.25 mult = (file=../../../../../profiles/GSO_36.0352_-79.9153_35_180.csv)

New Loadshape.GSO_36.0352_-79.9153_25_180 npts= 35040 interval=0.25 mult = (file=../../../../../profiles/GSO_36.0352_-79.9153_25_180.csv)

New Loadshape.GSO_36.0352_-79.9153_45_180 npts= 35040 interval=0.25 mult = (file=../../../../../profiles/GSO_36.0352_-79.9153_45_180.csv)

New Loadshape.GSO_36.0352_-79.9153_15_180 npts= 35040 interval=0.25 mult = (file=../../../../../profiles/GSO_36.0352_-79.9153_15_180.csv)

New Loadshape.GSO_36.0352_-79.9153_15_90 npts= 35040 interval=0.25 mult = (file=../../../../../profiles/GSO_36.0352_-79.9153_15_90.csv)

New Loadshape.GSO_36.0352_-79.9153_15_135 npts= 35040 interval=0.25 mult = (file=../../../../../profiles/GSO_36.0352_-79.9153_15_135.csv)

New Loadshape.GSO_36.0352_-79.9153_25_225 npts= 35040 interval=0.25 mult = (file=../../../../../profiles/GSO_36.0352_-79.9153_25_225.csv)

New Loadshape.GSO_35.9984_-79.9153_15_270 npts= 35040 interval=0.25 mult = (file=../../../../../profiles/GSO_35.9984_-79.9153_15_270.csv)

New Loadshape.GSO_36.0352_-79.9153_15_225 npts= 35040 interval=0.25 mult = (file=../../../../../profiles/GSO_36.0352_-79.9153_15_225.csv)

New Loadshape.GSO_35.9984_-79.9153_15_225 npts= 35040 interval=0.25 mult = (file=../../../../../profiles/GSO_35.9984_-79.9153_15_225.csv)

New Loadshape.GSO_36.0352_-79.9153_35_270 npts= 35040 interval=0.25 mult = (file=../../../../../profiles/GSO_36.0352_-79.9153_35_270.csv)

New Loadshape.GSO_36.0352_-79.9153_35_90 npts= 35040 interval=0.25 mult = (file=../../../../../profiles/GSO_36.0352_-79.9153_35_90.csv)

New Loadshape.GSO_35.9984_-79.9153_35_270 npts= 35040 interval=0.25 mult = (file=../../../../../profiles/GSO_35.9984_-79.9153_35_270.csv)

New Loadshape.GSO_36.0352_-79.9153_45_90 npts= 35040 interval=0.25 mult = (file=../../../../../profiles/GSO_36.0352_-79.9153_45_90.csv)

New Loadshape.GSO_35.9984_-79.9153_15_180 npts= 35040 interval=0.25 mult = (file=../../../../../profiles/GSO_35.9984_-79.9153_15_180.csv)

New Loadshape.GSO_36.0352_-79.9153_15_270 npts= 35040 interval=0.25 mult = (file=../../../../../profiles/GSO_36.0352_-79.9153_15_270.csv)

New Loadshape.GSO_35.9984_-79.9153_25_180 npts= 35040 interval=0.25 mult = (file=../../../../../profiles/GSO_35.9984_-79.9153_25_180.csv)

New Loadshape.GSO_36.0352_-79.9153_25_135 npts= 35040 interval=0.25 mult = (file=../../../../../profiles/GSO_36.0352_-79.9153_25_135.csv)

New Loadshape.GSO_36.0352_-79.9153_35_225 npts= 35040 interval=0.25 mult = (file=../../../../../profiles/GSO_36.0352_-79.9153_35_225.csv)

New Loadshape.GSO_35.9984_-79.9153_15_135 npts= 35040 interval=0.25 mult = (file=../../../../../profiles/GSO_35.9984_-79.9153_15_135.csv)

New Loadshape.GSO_35.9984_-79.9153_35_180 npts= 35040 interval=0.25 mult = (file=../../../../../profiles/GSO_35.9984_-79.9153_35_180.csv)

New Loadshape.GSO_36.0352_-79.9153_25_270 npts= 35040 interval=0.25 mult = (file=../../../../../profiles/GSO_36.0352_-79.9153_25_270.csv)

New Loadshape.GSO_36.0352_-79.9153_45_225 npts= 35040 interval=0.25 mult = (file=../../../../../profiles/GSO_36.0352_-79.9153_45_225.csv)

New Loadshape.GSO_35.9984_-79.9153_45_180 npts= 35040 interval=0.25 mult = (file=../../../../../profiles/GSO_35.9984_-79.9153_45_180.csv)

New Loadshape.GSO_36.0352_-79.9153_35_135 npts= 35040 interval=0.25 mult = (file=../../../../../profiles/GSO_36.0352_-79.9153_35_135.csv)

New Loadshape.GSO_35.9984_-79.9153_25_90 npts= 35040 interval=0.25 mult = (file=../../../../../profiles/GSO_35.9984_-79.9153_25_90.csv)

New Loadshape.GSO_35.9984_-79.9153_25_225 npts= 35040 interval=0.25 mult = (file=../../../../../profiles/GSO_35.9984_-79.9153_25_225.csv)

New Loadshape.GSO_35.9984_-79.9153_35_135 npts= 35040 interval=0.25 mult = (file=../../../../../profiles/GSO_35.9984_-79.9153_35_135.csv)

New Loadshape.GSO_35.9984_-79.9153_25_135 npts= 35040 interval=0.25 mult = (file=../../../../../profiles/GSO_35.9984_-79.9153_25_135.csv)

New Loadshape.GSO_36.0352_-79.9153_45_135 npts= 35040 interval=0.25 mult = (file=../../../../../profiles/GSO_36.0352_-79.9153_45_135.csv)

New Loadshape.GSO_36.0352_-79.9153_45_270 npts= 35040 interval=0.25 mult = (file=../../../../../profiles/GSO_36.0352_-79.9153_45_270.csv)

New Loadshape.GSO_35.9984_-79.9153_25_270 npts= 35040 interval=0.25 mult = (file=../../../../../profiles/GSO_35.9984_-79.9153_25_270.csv)

New Loadshape.GSO_35.9984_-79.9153_45_90 npts= 35040 interval=0.25 mult = (file=../../../../../profiles/GSO_35.9984_-79.9153_45_90.csv)

New Loadshape.GSO_35.9984_-79.9153_35_90 npts= 35040 interval=0.25 mult = (file=../../../../../profiles/GSO_35.9984_-79.9153_35_90.csv)

New Loadshape.GSO_35.9984_-79.9153_35_225 npts= 35040 interval=0.25 mult = (file=../../../../../profiles/GSO_35.9984_-79.9153_35_225.csv)

New Loadshape.GSO_36.0352_-79.9153_55_225 npts= 35040 interval=0.25 mult = (file=../../../../../profiles/GSO_36.0352_-79.9153_55_225.csv)

New Loadshape.GSO_35.9984_-79.9153_15_90 npts= 35040 interval=0.25 mult = (file=../../../../../profiles/GSO_35.9984_-79.9153_15_90.csv)

New Loadshape.GSO_36.0352_-79.9153_55_180 npts= 35040 interval=0.25 mult = (file=../../../../../profiles/GSO_36.0352_-79.9153_55_180.csv)

New Loadshape.GSO_36.0352_-79.9153_55_135 npts= 35040 interval=0.25 mult = (file=../../../../../profiles/GSO_36.0352_-79.9153_55_135.csv)

New Loadshape.res_kw_278_pu npts= 35040 interval=0.25 mult = (file=../../../../../profiles/res_kw_278_pu.csv) qmult = (file=../../../../../profiles/res_kvar_278_pu.csv)

New Loadshape.res_kw_1160_pu npts= 35040 interval=0.25 mult = (file=../../../../../profiles/res_kw_1160_pu.csv) qmult = (file=../../../../../profiles/res_kvar_1160_pu.csv)

New Loadshape.res_kw_75_pu npts= 35040 interval=0.25 mult = (file=../../../../../profiles/res_kw_75_pu.csv) qmult = (file=../../../../../profiles/res_kvar_75_pu.csv)

New Loadshape.res_kw_76_pu npts= 35040 interval=0.25 mult = (file=../../../../../profiles/res_kw_76_pu.csv) qmult = (file=../../../../../profiles/res_kvar_76_pu.csv)

New Loadshape.res_kw_780_pu npts= 35040 interval=0.25 mult = (file=../../../../../profiles/res_kw_780_pu.csv) qmult = (file=../../../../../profiles/res_kvar_780_pu.csv)

New Loadshape.res_kw_409_pu npts= 35040 interval=0.25 mult = (file=../../../../../profiles/res_kw_409_pu.csv) qmult = (file=../../../../../profiles/res_kvar_409_pu.csv)

New Loadshape.res_kw_317_pu npts= 35040 interval=0.25 mult = (file=../../../../../profiles/res_kw_317_pu.csv) qmult = (file=../../../../../profiles/res_kvar_317_pu.csv)

New Loadshape.res_kw_549_pu npts= 35040 interval=0.25 mult = (file=../../../../../profiles/res_kw_549_pu.csv) qmult = (file=../../../../../profiles/res_kvar_549_pu.csv)

New Loadshape.res_kw_517_pu npts= 35040 interval=0.25 mult = (file=../../../../../profiles/res_kw_517_pu.csv) qmult = (file=../../../../../profiles/res_kvar_517_pu.csv)

New Loadshape.res_kw_207_pu npts= 35040 interval=0.25 mult = (file=../../../../../profiles/res_kw_207_pu.csv) qmult = (file=../../../../../profiles/res_kvar_207_pu.csv)

New Loadshape.res_kw_33_pu npts= 35040 interval=0.25 mult = (file=../../../../../profiles/res_kw_33_pu.csv) qmult = (file=../../../../../profiles/res_kvar_33_pu.csv)

New Loadshape.res_kw_411_pu npts= 35040 interval=0.25 mult = (file=../../../../../profiles/res_kw_411_pu.csv) qmult = (file=../../../../../profiles/res_kvar_411_pu.csv)

New Loadshape.res_kw_1205_pu npts= 35040 interval=0.25 mult = (file=../../../../../profiles/res_kw_1205_pu.csv) qmult = (file=../../../../../profiles/res_kvar_1205_pu.csv)

New Loadshape.res_kw_822_pu npts= 35040 interval=0.25 mult = (file=../../../../../profiles/res_kw_822_pu.csv) qmult = (file=../../../../../profiles/res_kvar_822_pu.csv)

New Loadshape.res_kw_314_pu npts= 35040 interval=0.25 mult = (file=../../../../../profiles/res_kw_314_pu.csv) qmult = (file=../../../../../profiles/res_kvar_314_pu.csv)

New Loadshape.res_kw_331_pu npts= 35040 interval=0.25 mult = (file=../../../../../profiles/res_kw_331_pu.csv) qmult = (file=../../../../../profiles/res_kvar_331_pu.csv)

New Loadshape.res_kw_532_pu npts= 35040 interval=0.25 mult = (file=../../../../../profiles/res_kw_532_pu.csv) qmult = (file=../../../../../profiles/res_kvar_532_pu.csv)

New Loadshape.res_kw_229_pu npts= 35040 interval=0.25 mult = (file=../../../../../profiles/res_kw_229_pu.csv) qmult = (file=../../../../../profiles/res_kvar_229_pu.csv)

New Loadshape.res_kw_318_pu npts= 35040 interval=0.25 mult = (file=../../../../../profiles/res_kw_318_pu.csv) qmult = (file=../../../../../profiles/res_kvar_318_pu.csv)

New Loadshape.res_kw_512_pu npts= 35040 interval=0.25 mult = (file=../../../../../profiles/res_kw_512_pu.csv) qmult = (file=../../../../../profiles/res_kvar_512_pu.csv)

New Loadshape.res_kw_1256_pu npts= 35040 interval=0.25 mult = (file=../../../../../profiles/res_kw_1256_pu.csv) qmult = (file=../../../../../profiles/res_kvar_1256_pu.csv)

New Loadshape.res_kw_461_pu npts= 35040 interval=0.25 mult = (file=../../../../../profiles/res_kw_461_pu.csv) qmult = (file=../../../../../profiles/res_kvar_461_pu.csv)

New Loadshape.res_kw_1223_pu npts= 35040 interval=0.25 mult = (file=../../../../../profiles/res_kw_1223_pu.csv) qmult = (file=../../../../../profiles/res_kvar_1223_pu.csv)

New Loadshape.res_kw_1149_pu npts= 35040 interval=0.25 mult = (file=../../../../../profiles/res_kw_1149_pu.csv) qmult = (file=../../../../../profiles/res_kvar_1149_pu.csv)

New Loadshape.res_kw_1186_pu npts= 35040 interval=0.25 mult = (file=../../../../../profiles/res_kw_1186_pu.csv) qmult = (file=../../../../../profiles/res_kvar_1186_pu.csv)

New Loadshape.res_kw_1273_pu npts= 35040 interval=0.25 mult = (file=../../../../../profiles/res_kw_1273_pu.csv) qmult = (file=../../../../../profiles/res_kvar_1273_pu.csv)

New Loadshape.res_kw_40_pu npts= 35040 interval=0.25 mult = (file=../../../../../profiles/res_kw_40_pu.csv) qmult = (file=../../../../../profiles/res_kvar_40_pu.csv)

New Loadshape.res_kw_93_pu npts= 35040 interval=0.25 mult = (file=../../../../../profiles/res_kw_93_pu.csv) qmult = (file=../../../../../profiles/res_kvar_93_pu.csv)

New Loadshape.res_kw_695_pu npts= 35040 interval=0.25 mult = (file=../../../../../profiles/res_kw_695_pu.csv) qmult = (file=../../../../../profiles/res_kvar_695_pu.csv)

New Loadshape.res_kw_24_pu npts= 35040 interval=0.25 mult = (file=../../../../../profiles/res_kw_24_pu.csv) qmult = (file=../../../../../profiles/res_kvar_24_pu.csv)

New Loadshape.res_kw_470_pu npts= 35040 interval=0.25 mult = (file=../../../../../profiles/res_kw_470_pu.csv) qmult = (file=../../../../../profiles/res_kvar_470_pu.csv)

New Loadshape.res_kw_1037_pu npts= 35040 interval=0.25 mult = (file=../../../../../profiles/res_kw_1037_pu.csv) qmult = (file=../../../../../profiles/res_kvar_1037_pu.csv)

New Loadshape.res_kw_1042_pu npts= 35040 interval=0.25 mult = (file=../../../../../profiles/res_kw_1042_pu.csv) qmult = (file=../../../../../profiles/res_kvar_1042_pu.csv)

New Loadshape.res_kw_621_pu npts= 35040 interval=0.25 mult = (file=../../../../../profiles/res_kw_621_pu.csv) qmult = (file=../../../../../profiles/res_kvar_621_pu.csv)

New Loadshape.res_kw_1041_pu npts= 35040 interval=0.25 mult = (file=../../../../../profiles/res_kw_1041_pu.csv) qmult = (file=../../../../../profiles/res_kvar_1041_pu.csv)

New Loadshape.res_kw_1276_pu npts= 35040 interval=0.25 mult = (file=../../../../../profiles/res_kw_1276_pu.csv) qmult = (file=../../../../../profiles/res_kvar_1276_pu.csv)

New Loadshape.res_kw_691_pu npts= 35040 interval=0.25 mult = (file=../../../../../profiles/res_kw_691_pu.csv) qmult = (file=../../../../../profiles/res_kvar_691_pu.csv)

New Loadshape.res_kw_597_pu npts= 35040 interval=0.25 mult = (file=../../../../../profiles/res_kw_597_pu.csv) qmult = (file=../../../../../profiles/res_kvar_597_pu.csv)

New Loadshape.res_kw_30_pu npts= 35040 interval=0.25 mult = (file=../../../../../profiles/res_kw_30_pu.csv) qmult = (file=../../../../../profiles/res_kvar_30_pu.csv)

New Loadshape.res_kw_1270_pu npts= 35040 interval=0.25 mult = (file=../../../../../profiles/res_kw_1270_pu.csv) qmult = (file=../../../../../profiles/res_kvar_1270_pu.csv)

New Loadshape.res_kw_931_pu npts= 35040 interval=0.25 mult = (file=../../../../../profiles/res_kw_931_pu.csv) qmult = (file=../../../../../profiles/res_kvar_931_pu.csv)

New Loadshape.res_kw_1083_pu npts= 35040 interval=0.25 mult = (file=../../../../../profiles/res_kw_1083_pu.csv) qmult = (file=../../../../../profiles/res_kvar_1083_pu.csv)

New Loadshape.res_kw_842_pu npts= 35040 interval=0.25 mult = (file=../../../../../profiles/res_kw_842_pu.csv) qmult = (file=../../../../../profiles/res_kvar_842_pu.csv)

New Loadshape.res_kw_645_pu npts= 35040 interval=0.25 mult = (file=../../../../../profiles/res_kw_645_pu.csv) qmult = (file=../../../../../profiles/res_kvar_645_pu.csv)

New Loadshape.res_kw_1153_pu npts= 35040 interval=0.25 mult = (file=../../../../../profiles/res_kw_1153_pu.csv) qmult = (file=../../../../../profiles/res_kvar_1153_pu.csv)

New Loadshape.res_kw_523_pu npts= 35040 interval=0.25 mult = (file=../../../../../profiles/res_kw_523_pu.csv) qmult = (file=../../../../../profiles/res_kvar_523_pu.csv)

New Loadshape.res_kw_664_pu npts= 35040 interval=0.25 mult = (file=../../../../../profiles/res_kw_664_pu.csv) qmult = (file=../../../../../profiles/res_kvar_664_pu.csv)

New Loadshape.res_kw_625_pu npts= 35040 interval=0.25 mult = (file=../../../../../profiles/res_kw_625_pu.csv) qmult = (file=../../../../../profiles/res_kvar_625_pu.csv)

New Loadshape.res_kw_280_pu npts= 35040 interval=0.25 mult = (file=../../../../../profiles/res_kw_280_pu.csv) qmult = (file=../../../../../profiles/res_kvar_280_pu.csv)

New Loadshape.res_kw_250_pu npts= 35040 interval=0.25 mult = (file=../../../../../profiles/res_kw_250_pu.csv) qmult = (file=../../../../../profiles/res_kvar_250_pu.csv)

New Loadshape.res_kw_1070_pu npts= 35040 interval=0.25 mult = (file=../../../../../profiles/res_kw_1070_pu.csv) qmult = (file=../../../../../profiles/res_kvar_1070_pu.csv)

New Loadshape.res_kw_182_pu npts= 35040 interval=0.25 mult = (file=../../../../../profiles/res_kw_182_pu.csv) qmult = (file=../../../../../profiles/res_kvar_182_pu.csv)

New Loadshape.res_kw_504_pu npts= 35040 interval=0.25 mult = (file=../../../../../profiles/res_kw_504_pu.csv) qmult = (file=../../../../../profiles/res_kvar_504_pu.csv)

New Loadshape.res_kw_627_pu npts= 35040 interval=0.25 mult = (file=../../../../../profiles/res_kw_627_pu.csv) qmult = (file=../../../../../profiles/res_kvar_627_pu.csv)

New Loadshape.res_kw_1258_pu npts= 35040 interval=0.25 mult = (file=../../../../../profiles/res_kw_1258_pu.csv) qmult = (file=../../../../../profiles/res_kvar_1258_pu.csv)

New Loadshape.res_kw_863_pu npts= 35040 interval=0.25 mult = (file=../../../../../profiles/res_kw_863_pu.csv) qmult = (file=../../../../../profiles/res_kvar_863_pu.csv)

New Loadshape.res_kw_454_pu npts= 35040 interval=0.25 mult = (file=../../../../../profiles/res_kw_454_pu.csv) qmult = (file=../../../../../profiles/res_kvar_454_pu.csv)

New Loadshape.res_kw_933_pu npts= 35040 interval=0.25 mult = (file=../../../../../profiles/res_kw_933_pu.csv) qmult = (file=../../../../../profiles/res_kvar_933_pu.csv)

New Loadshape.res_kw_421_pu npts= 35040 interval=0.25 mult = (file=../../../../../profiles/res_kw_421_pu.csv) qmult = (file=../../../../../profiles/res_kvar_421_pu.csv)

New Loadshape.res_kw_670_pu npts= 35040 interval=0.25 mult = (file=../../../../../profiles/res_kw_670_pu.csv) qmult = (file=../../../../../profiles/res_kvar_670_pu.csv)

New Loadshape.res_kw_825_pu npts= 35040 interval=0.25 mult = (file=../../../../../profiles/res_kw_825_pu.csv) qmult = (file=../../../../../profiles/res_kvar_825_pu.csv)

New Loadshape.res_kw_4_pu npts= 35040 interval=0.25 mult = (file=../../../../../profiles/res_kw_4_pu.csv) qmult = (file=../../../../../profiles/res_kvar_4_pu.csv)

New Loadshape.res_kw_46_pu npts= 35040 interval=0.25 mult = (file=../../../../../profiles/res_kw_46_pu.csv) qmult = (file=../../../../../profiles/res_kvar_46_pu.csv)

New Loadshape.res_kw_263_pu npts= 35040 interval=0.25 mult = (file=../../../../../profiles/res_kw_263_pu.csv) qmult = (file=../../../../../profiles/res_kvar_263_pu.csv)

New Loadshape.res_kw_199_pu npts= 35040 interval=0.25 mult = (file=../../../../../profiles/res_kw_199_pu.csv) qmult = (file=../../../../../profiles/res_kvar_199_pu.csv)

New Loadshape.res_kw_1248_pu npts= 35040 interval=0.25 mult = (file=../../../../../profiles/res_kw_1248_pu.csv) qmult = (file=../../../../../profiles/res_kvar_1248_pu.csv)

New Loadshape.res_kw_169_pu npts= 35040 interval=0.25 mult = (file=../../../../../profiles/res_kw_169_pu.csv) qmult = (file=../../../../../profiles/res_kvar_169_pu.csv)

New Loadshape.res_kw_616_pu npts= 35040 interval=0.25 mult = (file=../../../../../profiles/res_kw_616_pu.csv) qmult = (file=../../../../../profiles/res_kvar_616_pu.csv)

New Loadshape.res_kw_290_pu npts= 35040 interval=0.25 mult = (file=../../../../../profiles/res_kw_290_pu.csv) qmult = (file=../../../../../profiles/res_kvar_290_pu.csv)

New Loadshape.res_kw_710_pu npts= 35040 interval=0.25 mult = (file=../../../../../profiles/res_kw_710_pu.csv) qmult = (file=../../../../../profiles/res_kvar_710_pu.csv)

New Loadshape.res_kw_630_pu npts= 35040 interval=0.25 mult = (file=../../../../../profiles/res_kw_630_pu.csv) qmult = (file=../../../../../profiles/res_kvar_630_pu.csv)

New Loadshape.res_kw_715_pu npts= 35040 interval=0.25 mult = (file=../../../../../profiles/res_kw_715_pu.csv) qmult = (file=../../../../../profiles/res_kvar_715_pu.csv)

New Loadshape.res_kw_829_pu npts= 35040 interval=0.25 mult = (file=../../../../../profiles/res_kw_829_pu.csv) qmult = (file=../../../../../profiles/res_kvar_829_pu.csv)

New Loadshape.res_kw_162_pu npts= 35040 interval=0.25 mult = (file=../../../../../profiles/res_kw_162_pu.csv) qmult = (file=../../../../../profiles/res_kvar_162_pu.csv)

New Loadshape.res_kw_203_pu npts= 35040 interval=0.25 mult = (file=../../../../../profiles/res_kw_203_pu.csv) qmult = (file=../../../../../profiles/res_kvar_203_pu.csv)

New Loadshape.res_kw_1146_pu npts= 35040 interval=0.25 mult = (file=../../../../../profiles/res_kw_1146_pu.csv) qmult = (file=../../../../../profiles/res_kvar_1146_pu.csv)

New Loadshape.res_kw_707_pu npts= 35040 interval=0.25 mult = (file=../../../../../profiles/res_kw_707_pu.csv) qmult = (file=../../../../../profiles/res_kvar_707_pu.csv)

New Loadshape.res_kw_1115_pu npts= 35040 interval=0.25 mult = (file=../../../../../profiles/res_kw_1115_pu.csv) qmult = (file=../../../../../profiles/res_kvar_1115_pu.csv)

New Loadshape.res_kw_462_pu npts= 35040 interval=0.25 mult = (file=../../../../../profiles/res_kw_462_pu.csv) qmult = (file=../../../../../profiles/res_kvar_462_pu.csv)

New Loadshape.res_kw_558_pu npts= 35040 interval=0.25 mult = (file=../../../../../profiles/res_kw_558_pu.csv) qmult = (file=../../../../../profiles/res_kvar_558_pu.csv)

New Loadshape.res_kw_599_pu npts= 35040 interval=0.25 mult = (file=../../../../../profiles/res_kw_599_pu.csv) qmult = (file=../../../../../profiles/res_kvar_599_pu.csv)

New Loadshape.res_kw_197_pu npts= 35040 interval=0.25 mult = (file=../../../../../profiles/res_kw_197_pu.csv) qmult = (file=../../../../../profiles/res_kvar_197_pu.csv)

New Loadshape.res_kw_1228_pu npts= 35040 interval=0.25 mult = (file=../../../../../profiles/res_kw_1228_pu.csv) qmult = (file=../../../../../profiles/res_kvar_1228_pu.csv)

New Loadshape.res_kw_283_pu npts= 35040 interval=0.25 mult = (file=../../../../../profiles/res_kw_283_pu.csv) qmult = (file=../../../../../profiles/res_kvar_283_pu.csv)

New Loadshape.res_kw_1267_pu npts= 35040 interval=0.25 mult = (file=../../../../../profiles/res_kw_1267_pu.csv) qmult = (file=../../../../../profiles/res_kvar_1267_pu.csv)

New Loadshape.res_kw_141_pu npts= 35040 interval=0.25 mult = (file=../../../../../profiles/res_kw_141_pu.csv) qmult = (file=../../../../../profiles/res_kvar_141_pu.csv)

New Loadshape.res_kw_216_pu npts= 35040 interval=0.25 mult = (file=../../../../../profiles/res_kw_216_pu.csv) qmult = (file=../../../../../profiles/res_kvar_216_pu.csv)

New Loadshape.res_kw_887_pu npts= 35040 interval=0.25 mult = (file=../../../../../profiles/res_kw_887_pu.csv) qmult = (file=../../../../../profiles/res_kvar_887_pu.csv)

New Loadshape.res_kw_879_pu npts= 35040 interval=0.25 mult = (file=../../../../../profiles/res_kw_879_pu.csv) qmult = (file=../../../../../profiles/res_kvar_879_pu.csv)

New Loadshape.com_kw_13887_pu npts= 35040 interval=0.25 mult = (file=../../../../../profiles/com_kw_13887_pu.csv) qmult = (file=../../../../../profiles/com_kvar_13887_pu.csv)

New Loadshape.com_kw_12814_pu npts= 35040 interval=0.25 mult = (file=../../../../../profiles/com_kw_12814_pu.csv) qmult = (file=../../../../../profiles/com_kvar_12814_pu.csv)

New Loadshape.com_kw_13797_pu npts= 35040 interval=0.25 mult = (file=../../../../../profiles/com_kw_13797_pu.csv) qmult = (file=../../../../../profiles/com_kvar_13797_pu.csv)

New Loadshape.com_kw_13663_pu npts= 35040 interval=0.25 mult = (file=../../../../../profiles/com_kw_13663_pu.csv) qmult = (file=../../../../../profiles/com_kvar_13663_pu.csv)

New Loadshape.com_kw_15253_pu npts= 35040 interval=0.25 mult = (file=../../../../../profiles/com_kw_15253_pu.csv) qmult = (file=../../../../../profiles/com_kvar_15253_pu.csv)

New Loadshape.com_kw_13636_pu npts= 35040 interval=0.25 mult = (file=../../../../../profiles/com_kw_13636_pu.csv) qmult = (file=../../../../../profiles/com_kvar_13636_pu.csv)

New Loadshape.com_kw_14250_pu npts= 35040 interval=0.25 mult = (file=../../../../../profiles/com_kw_14250_pu.csv) qmult = (file=../../../../../profiles/com_kvar_14250_pu.csv)

New Loadshape.com_kw_14932_pu npts= 35040 interval=0.25 mult = (file=../../../../../profiles/com_kw_14932_pu.csv) qmult = (file=../../../../../profiles/com_kvar_14932_pu.csv)

New Loadshape.com_kw_13018_pu npts= 35040 interval=0.25 mult = (file=../../../../../profiles/com_kw_13018_pu.csv) qmult = (file=../../../../../profiles/com_kvar_13018_pu.csv)

New Loadshape.com_kw_14518_pu npts= 35040 interval=0.25 mult = (file=../../../../../profiles/com_kw_14518_pu.csv) qmult = (file=../../../../../profiles/com_kvar_14518_pu.csv)

New Loadshape.com_kw_15010_pu npts= 35040 interval=0.25 mult = (file=../../../../../profiles/com_kw_15010_pu.csv) qmult = (file=../../../../../profiles/com_kvar_15010_pu.csv)

New Loadshape.com_kw_12903_pu npts= 35040 interval=0.25 mult = (file=../../../../../profiles/com_kw_12903_pu.csv) qmult = (file=../../../../../profiles/com_kvar_12903_pu.csv)

New Loadshape.com_kw_14689_pu npts= 35040 interval=0.25 mult = (file=../../../../../profiles/com_kw_14689_pu.csv) qmult = (file=../../../../../profiles/com_kvar_14689_pu.csv)

New Loadshape.com_kw_14382_pu npts= 35040 interval=0.25 mult = (file=../../../../../profiles/com_kw_14382_pu.csv) qmult = (file=../../../../../profiles/com_kvar_14382_pu.csv)

New Loadshape.com_kw_12909_pu npts= 35040 interval=0.25 mult = (file=../../../../../profiles/com_kw_12909_pu.csv) qmult = (file=../../../../../profiles/com_kvar_12909_pu.csv)

New Loadshape.com_kw_13766_pu npts= 35040 interval=0.25 mult = (file=../../../../../profiles/com_kw_13766_pu.csv) qmult = (file=../../../../../profiles/com_kvar_13766_pu.csv)

New Loadshape.com_kw_13107_pu npts= 35040 interval=0.25 mult = (file=../../../../../profiles/com_kw_13107_pu.csv) qmult = (file=../../../../../profiles/com_kvar_13107_pu.csv)

New Loadshape.com_kw_14155_pu npts= 35040 interval=0.25 mult = (file=../../../../../profiles/com_kw_14155_pu.csv) qmult = (file=../../../../../profiles/com_kvar_14155_pu.csv)

New Loadshape.com_kw_15111_pu npts= 35040 interval=0.25 mult = (file=../../../../../profiles/com_kw_15111_pu.csv) qmult = (file=../../../../../profiles/com_kvar_15111_pu.csv)

New Loadshape.com_kw_13893_pu npts= 35040 interval=0.25 mult = (file=../../../../../profiles/com_kw_13893_pu.csv) qmult = (file=../../../../../profiles/com_kvar_13893_pu.csv)

New Loadshape.com_kw_14894_pu npts= 35040 interval=0.25 mult = (file=../../../../../profiles/com_kw_14894_pu.csv) qmult = (file=../../../../../profiles/com_kvar_14894_pu.csv)

New Loadshape.com_kw_13905_pu npts= 35040 interval=0.25 mult = (file=../../../../../profiles/com_kw_13905_pu.csv) qmult = (file=../../../../../profiles/com_kvar_13905_pu.csv)

New Loadshape.com_kw_13469_pu npts= 35040 interval=0.25 mult = (file=../../../../../profiles/com_kw_13469_pu.csv) qmult = (file=../../../../../profiles/com_kvar_13469_pu.csv)

New Loadshape.com_kw_13641_pu npts= 35040 interval=0.25 mult = (file=../../../../../profiles/com_kw_13641_pu.csv) qmult = (file=../../../../../profiles/com_kvar_13641_pu.csv)

New Loadshape.com_kw_14650_pu npts= 35040 interval=0.25 mult = (file=../../../../../profiles/com_kw_14650_pu.csv) qmult = (file=../../../../../profiles/com_kvar_14650_pu.csv)

New Loadshape.com_kw_12794_pu npts= 35040 interval=0.25 mult = (file=../../../../../profiles/com_kw_12794_pu.csv) qmult = (file=../../../../../profiles/com_kvar_12794_pu.csv)

New Loadshape.com_kw_12995_pu npts= 35040 interval=0.25 mult = (file=../../../../../profiles/com_kw_12995_pu.csv) qmult = (file=../../../../../profiles/com_kvar_12995_pu.csv)

New Loadshape.com_kw_13793_pu npts= 35040 interval=0.25 mult = (file=../../../../../profiles/com_kw_13793_pu.csv) qmult = (file=../../../../../profiles/com_kvar_13793_pu.csv)

New Loadshape.com_kw_14266_pu npts= 35040 interval=0.25 mult = (file=../../../../../profiles/com_kw_14266_pu.csv) qmult = (file=../../../../../profiles/com_kvar_14266_pu.csv)

New Loadshape.com_kw_14247_pu npts= 35040 interval=0.25 mult = (file=../../../../../profiles/com_kw_14247_pu.csv) qmult = (file=../../../../../profiles/com_kvar_14247_pu.csv)

New Loadshape.com_kw_13262_pu npts= 35040 interval=0.25 mult = (file=../../../../../profiles/com_kw_13262_pu.csv) qmult = (file=../../../../../profiles/com_kvar_13262_pu.csv)

New Loadshape.com_kw_12955_pu npts= 35040 interval=0.25 mult = (file=../../../../../profiles/com_kw_12955_pu.csv) qmult = (file=../../../../../profiles/com_kvar_12955_pu.csv)

New Loadshape.com_kw_14206_pu npts= 35040 interval=0.25 mult = (file=../../../../../profiles/com_kw_14206_pu.csv) qmult = (file=../../../../../profiles/com_kvar_14206_pu.csv)

New Loadshape.com_kw_15221_pu npts= 35040 interval=0.25 mult = (file=../../../../../profiles/com_kw_15221_pu.csv) qmult = (file=../../../../../profiles/com_kvar_15221_pu.csv)

New Loadshape.com_kw_14427_pu npts= 35040 interval=0.25 mult = (file=../../../../../profiles/com_kw_14427_pu.csv) qmult = (file=../../../../../profiles/com_kvar_14427_pu.csv)

New Loadshape.com_kw_15153_pu npts= 35040 interval=0.25 mult = (file=../../../../../profiles/com_kw_15153_pu.csv) qmult = (file=../../../../../profiles/com_kvar_15153_pu.csv)

New Loadshape.com_kw_14106_pu npts= 35040 interval=0.25 mult = (file=../../../../../profiles/com_kw_14106_pu.csv) qmult = (file=../../../../../profiles/com_kvar_14106_pu.csv)

New Loadshape.com_kw_13585_pu npts= 35040 interval=0.25 mult = (file=../../../../../profiles/com_kw_13585_pu.csv) qmult = (file=../../../../../profiles/com_kvar_13585_pu.csv)

New Loadshape.com_kw_14102_pu npts= 35040 interval=0.25 mult = (file=../../../../../profiles/com_kw_14102_pu.csv) qmult = (file=../../../../../profiles/com_kvar_14102_pu.csv)

New Loadshape.com_kw_12824_pu npts= 35040 interval=0.25 mult = (file=../../../../../profiles/com_kw_12824_pu.csv) qmult = (file=../../../../../profiles/com_kvar_12824_pu.csv)

New Loadshape.com_kw_13210_pu npts= 35040 interval=0.25 mult = (file=../../../../../profiles/com_kw_13210_pu.csv) qmult = (file=../../../../../profiles/com_kvar_13210_pu.csv)

New Loadshape.com_kw_13445_pu npts= 35040 interval=0.25 mult = (file=../../../../../profiles/com_kw_13445_pu.csv) qmult = (file=../../../../../profiles/com_kvar_13445_pu.csv)

New Loadshape.com_kw_14842_pu npts= 35040 interval=0.25 mult = (file=../../../../../profiles/com_kw_14842_pu.csv) qmult = (file=../../../../../profiles/com_kvar_14842_pu.csv)

New Loadshape.com_kw_14002_pu npts= 35040 interval=0.25 mult = (file=../../../../../profiles/com_kw_14002_pu.csv) qmult = (file=../../../../../profiles/com_kvar_14002_pu.csv)

New Loadshape.com_kw_14128_pu npts= 35040 interval=0.25 mult = (file=../../../../../profiles/com_kw_14128_pu.csv) qmult = (file=../../../../../profiles/com_kvar_14128_pu.csv)

New Loadshape.com_kw_13450_pu npts= 35040 interval=0.25 mult = (file=../../../../../profiles/com_kw_13450_pu.csv) qmult = (file=../../../../../profiles/com_kvar_13450_pu.csv)

New Loadshape.com_kw_14660_pu npts= 35040 interval=0.25 mult = (file=../../../../../profiles/com_kw_14660_pu.csv) qmult = (file=../../../../../profiles/com_kvar_14660_pu.csv)

New Loadshape.com_kw_13802_pu npts= 35040 interval=0.25 mult = (file=../../../../../profiles/com_kw_13802_pu.csv) qmult = (file=../../../../../profiles/com_kvar_13802_pu.csv)

New Loadshape.com_kw_14569_pu npts= 35040 interval=0.25 mult = (file=../../../../../profiles/com_kw_14569_pu.csv) qmult = (file=../../../../../profiles/com_kvar_14569_pu.csv)

New Loadshape.com_kw_13682_pu npts= 35040 interval=0.25 mult = (file=../../../../../profiles/com_kw_13682_pu.csv) qmult = (file=../../../../../profiles/com_kvar_13682_pu.csv)

New Loadshape.com_kw_12843_pu npts= 35040 interval=0.25 mult = (file=../../../../../profiles/com_kw_12843_pu.csv) qmult = (file=../../../../../profiles/com_kvar_12843_pu.csv)
