New Load.load_p1ulv2606_1 conn=wye bus1=p1ulv2606.1 kV=0.12 Vminpu=0.8 Vmaxpu=1.2 model=1 kW=3.9060227283575606 kvar=0.8578020352767629 Phases=1 yearly=res_kw_278_pu

New Load.load_p1ulv2606_2 conn=wye bus1=p1ulv2606.2 kV=0.12 Vminpu=0.8 Vmaxpu=1.2 model=1 kW=3.9060227283575606 kvar=0.8578020352767629 Phases=1 yearly=res_kw_278_pu

New Load.load_p1ulv2607_1 conn=wye bus1=p1ulv2607.1 kV=0.12 Vminpu=0.8 Vmaxpu=1.2 model=1 kW=3.013000258801837 kvar=0.6644912672412583 Phases=1 yearly=com_kw_13887_pu

New Load.load_p1ulv2607_2 conn=wye bus1=p1ulv2607.2 kV=0.12 Vminpu=0.8 Vmaxpu=1.2 model=1 kW=3.013000258801837 kvar=0.6644912672412583 Phases=1 yearly=com_kw_13887_pu

New Load.load_p1ulv2608_1 conn=wye bus1=p1ulv2608.1 kV=0.12 Vminpu=0.8 Vmaxpu=1.2 model=1 kW=4.889402611994926 kvar=1.0559288347164948 Phases=1 yearly=res_kw_1160_pu

New Load.load_p1ulv2608_2 conn=wye bus1=p1ulv2608.2 kV=0.12 Vminpu=0.8 Vmaxpu=1.2 model=1 kW=4.889402611994926 kvar=1.0559288347164948 Phases=1 yearly=res_kw_1160_pu

New Load.load_p1ulv2609_1 conn=wye bus1=p1ulv2609.1 kV=0.12 Vminpu=0.8 Vmaxpu=1.2 model=1 kW=5.286987923172412 kvar=0.912918656895422 Phases=1 yearly=res_kw_75_pu

New Load.load_p1ulv2609_2 conn=wye bus1=p1ulv2609.2 kV=0.12 Vminpu=0.8 Vmaxpu=1.2 model=1 kW=5.286987923172412 kvar=0.912918656895422 Phases=1 yearly=res_kw_75_pu

New Load.load_p1ulv2725 conn=wye bus1=p1ulv2725.1.2.3 kV=0.48 Vminpu=0.8 Vmaxpu=1.2 model=1 kW=31.56390894948716 kvar=5.59016195527881 Phases=3 yearly=res_kw_76_pu

New Load.load_p1ulv2726_1 conn=wye bus1=p1ulv2726.1 kV=0.12 Vminpu=0.8 Vmaxpu=1.2 model=1 kW=5.657185051194877 kvar=1.2069063012387689 Phases=1 yearly=res_kw_780_pu

New Load.load_p1ulv2726_2 conn=wye bus1=p1ulv2726.2 kV=0.12 Vminpu=0.8 Vmaxpu=1.2 model=1 kW=5.657185051194877 kvar=1.2069063012387689 Phases=1 yearly=res_kw_780_pu

New Load.load_p1ulv2727_1 conn=wye bus1=p1ulv2727.1 kV=0.12 Vminpu=0.8 Vmaxpu=1.2 model=1 kW=2.4402285312138985 kvar=0.9342273883677934 Phases=1 yearly=res_kw_409_pu

New Load.load_p1ulv2727_2 conn=wye bus1=p1ulv2727.2 kV=0.12 Vminpu=0.8 Vmaxpu=1.2 model=1 kW=2.4402285312138985 kvar=0.9342273883677934 Phases=1 yearly=res_kw_409_pu

New Load.load_p1ulv2728_1 conn=wye bus1=p1ulv2728.1 kV=0.12 Vminpu=0.8 Vmaxpu=1.2 model=1 kW=5.851131552538107 kvar=1.44338115693729 Phases=1 yearly=res_kw_317_pu

New Load.load_p1ulv2728_2 conn=wye bus1=p1ulv2728.2 kV=0.12 Vminpu=0.8 Vmaxpu=1.2 model=1 kW=5.851131552538107 kvar=1.44338115693729 Phases=1 yearly=res_kw_317_pu

New Load.load_p1ulv2729_1 conn=wye bus1=p1ulv2729.1 kV=0.12 Vminpu=0.8 Vmaxpu=1.2 model=1 kW=4.8861141847383 kvar=1.2417687859549835 Phases=1 yearly=res_kw_549_pu

New Load.load_p1ulv2729_2 conn=wye bus1=p1ulv2729.2 kV=0.12 Vminpu=0.8 Vmaxpu=1.2 model=1 kW=4.8861141847383 kvar=1.2417687859549835 Phases=1 yearly=res_kw_549_pu

New Load.load_p1ulv2730_1 conn=wye bus1=p1ulv2730.1 kV=0.12 Vminpu=0.8 Vmaxpu=1.2 model=1 kW=3.8748715750127736 kvar=1.5614372175332516 Phases=1 yearly=res_kw_517_pu

New Load.load_p1ulv2730_2 conn=wye bus1=p1ulv2730.2 kV=0.12 Vminpu=0.8 Vmaxpu=1.2 model=1 kW=3.8748715750127736 kvar=1.5614372175332516 Phases=1 yearly=res_kw_517_pu

New Load.load_p1ulv2731_1 conn=wye bus1=p1ulv2731.1 kV=0.12 Vminpu=0.8 Vmaxpu=1.2 model=1 kW=5.02113589877799 kvar=1.330838974667839 Phases=1 yearly=res_kw_207_pu

New Load.load_p1ulv2731_2 conn=wye bus1=p1ulv2731.2 kV=0.12 Vminpu=0.8 Vmaxpu=1.2 model=1 kW=5.02113589877799 kvar=1.330838974667839 Phases=1 yearly=res_kw_207_pu

New Load.load_p1ulv2732_1 conn=wye bus1=p1ulv2732.1 kV=0.12 Vminpu=0.8 Vmaxpu=1.2 model=1 kW=2.6241521841182514 kvar=0.8429304779950015 Phases=1 yearly=res_kw_33_pu

New Load.load_p1ulv2732_2 conn=wye bus1=p1ulv2732.2 kV=0.12 Vminpu=0.8 Vmaxpu=1.2 model=1 kW=2.6241521841182514 kvar=0.8429304779950015 Phases=1 yearly=res_kw_33_pu

New Load.load_p1ulv2733_1 conn=wye bus1=p1ulv2733.1 kV=0.12 Vminpu=0.8 Vmaxpu=1.2 model=1 kW=8.020736002000627 kvar=0.8077597125403054 Phases=1 yearly=res_kw_411_pu

New Load.load_p1ulv2733_2 conn=wye bus1=p1ulv2733.2 kV=0.12 Vminpu=0.8 Vmaxpu=1.2 model=1 kW=8.020736002000627 kvar=0.8077597125403054 Phases=1 yearly=res_kw_411_pu

New Load.load_p1ulv2734_1 conn=wye bus1=p1ulv2734.1 kV=0.12 Vminpu=0.8 Vmaxpu=1.2 model=1 kW=3.8748715750127736 kvar=1.5614372175332516 Phases=1 yearly=res_kw_517_pu

New Load.load_p1ulv2734_2 conn=wye bus1=p1ulv2734.2 kV=0.12 Vminpu=0.8 Vmaxpu=1.2 model=1 kW=3.8748715750127736 kvar=1.5614372175332516 Phases=1 yearly=res_kw_517_pu

New Load.load_p1ulv2735_1 conn=wye bus1=p1ulv2735.1 kV=0.12 Vminpu=0.8 Vmaxpu=1.2 model=1 kW=2.40000228705824 kvar=1.0173787262529668 Phases=1 yearly=res_kw_1205_pu

New Load.load_p1ulv2735_2 conn=wye bus1=p1ulv2735.2 kV=0.12 Vminpu=0.8 Vmaxpu=1.2 model=1 kW=2.40000228705824 kvar=1.0173787262529668 Phases=1 yearly=res_kw_1205_pu

New Load.load_p1ulv2736_1 conn=wye bus1=p1ulv2736.1 kV=0.12 Vminpu=0.8 Vmaxpu=1.2 model=1 kW=6.727252203449795 kvar=1.9067277455995406 Phases=1 yearly=res_kw_822_pu

New Load.load_p1ulv2736_2 conn=wye bus1=p1ulv2736.2 kV=0.12 Vminpu=0.8 Vmaxpu=1.2 model=1 kW=6.727252203449795 kvar=1.9067277455995406 Phases=1 yearly=res_kw_822_pu

New Load.load_p1ulv2737 conn=wye bus1=p1ulv2737.1.2.3 kV=0.48 Vminpu=0.8 Vmaxpu=1.2 model=1 kW=359.6894358959385 kvar=105.981216307442 Phases=3 yearly=com_kw_12814_pu

New Load.load_p1ulv2738_1 conn=wye bus1=p1ulv2738.1 kV=0.12 Vminpu=0.8 Vmaxpu=1.2 model=1 kW=5.991917116566147 kvar=1.6692124001399427 Phases=1 yearly=res_kw_314_pu

New Load.load_p1ulv2738_2 conn=wye bus1=p1ulv2738.2 kV=0.12 Vminpu=0.8 Vmaxpu=1.2 model=1 kW=5.991917116566147 kvar=1.6692124001399427 Phases=1 yearly=res_kw_314_pu

New Load.load_p1ulv2739_1 conn=wye bus1=p1ulv2739.1 kV=0.12 Vminpu=0.8 Vmaxpu=1.2 model=1 kW=2.456740089175818 kvar=0.4991709793701422 Phases=1 yearly=res_kw_331_pu

New Load.load_p1ulv2739_2 conn=wye bus1=p1ulv2739.2 kV=0.12 Vminpu=0.8 Vmaxpu=1.2 model=1 kW=2.456740089175818 kvar=0.4991709793701422 Phases=1 yearly=res_kw_331_pu

New Load.load_p1ulv2740_1 conn=wye bus1=p1ulv2740.1 kV=0.12 Vminpu=0.8 Vmaxpu=1.2 model=1 kW=1.8636614682402992 kvar=0.5015179682387616 Phases=1 yearly=res_kw_532_pu

New Load.load_p1ulv2740_2 conn=wye bus1=p1ulv2740.2 kV=0.12 Vminpu=0.8 Vmaxpu=1.2 model=1 kW=1.8636614682402992 kvar=0.5015179682387616 Phases=1 yearly=res_kw_532_pu

New Load.load_p1ulv2741 conn=wye bus1=p1ulv2741.1.2.3 kV=0.48 Vminpu=0.8 Vmaxpu=1.2 model=1 kW=35.57577349618359 kvar=2.641681611262687 Phases=3 yearly=com_kw_13797_pu

New Load.load_p1ulv2742 conn=wye bus1=p1ulv2742.1.2.3 kV=0.48 Vminpu=0.8 Vmaxpu=1.2 model=1 kW=100.96077349571902 kvar=15.848564859540698 Phases=3 yearly=com_kw_13663_pu

New Load.load_p1ulv2743_1 conn=wye bus1=p1ulv2743.1 kV=0.12 Vminpu=0.8 Vmaxpu=1.2 model=1 kW=5.777968789114468 kvar=0.5425823089827511 Phases=1 yearly=com_kw_15253_pu

New Load.load_p1ulv2743_2 conn=wye bus1=p1ulv2743.2 kV=0.12 Vminpu=0.8 Vmaxpu=1.2 model=1 kW=5.777968789114468 kvar=0.5425823089827511 Phases=1 yearly=com_kw_15253_pu

New Load.load_p1ulv2745_1 conn=wye bus1=p1ulv2745.1 kV=0.12 Vminpu=0.8 Vmaxpu=1.2 model=1 kW=4.198936522204728 kvar=0.9501139000968819 Phases=1 yearly=res_kw_229_pu

New Load.load_p1ulv2745_2 conn=wye bus1=p1ulv2745.2 kV=0.12 Vminpu=0.8 Vmaxpu=1.2 model=1 kW=4.198936522204728 kvar=0.9501139000968819 Phases=1 yearly=res_kw_229_pu

New Load.load_p1ulv2758_1 conn=wye bus1=p1ulv2758.1 kV=0.12 Vminpu=0.8 Vmaxpu=1.2 model=1 kW=5.991917116566147 kvar=1.6692124001399427 Phases=1 yearly=res_kw_314_pu

New Load.load_p1ulv2758_2 conn=wye bus1=p1ulv2758.2 kV=0.12 Vminpu=0.8 Vmaxpu=1.2 model=1 kW=5.991917116566147 kvar=1.6692124001399427 Phases=1 yearly=res_kw_314_pu

New Load.load_p1ulv10123_1 conn=wye bus1=p1ulv10123.1 kV=0.12 Vminpu=0.8 Vmaxpu=1.2 model=1 kW=4.404482752488931 kvar=1.096009798329146 Phases=1 yearly=res_kw_318_pu

New Load.load_p1ulv10123_2 conn=wye bus1=p1ulv10123.2 kV=0.12 Vminpu=0.8 Vmaxpu=1.2 model=1 kW=4.404482752488931 kvar=1.096009798329146 Phases=1 yearly=res_kw_318_pu

New Load.load_p1ulv10127_1 conn=wye bus1=p1ulv10127.1 kV=0.12 Vminpu=0.8 Vmaxpu=1.2 model=1 kW=4.788649591238137 kvar=1.023651375705972 Phases=1 yearly=res_kw_512_pu

New Load.load_p1ulv10127_2 conn=wye bus1=p1ulv10127.2 kV=0.12 Vminpu=0.8 Vmaxpu=1.2 model=1 kW=4.788649591238137 kvar=1.023651375705972 Phases=1 yearly=res_kw_512_pu

New Load.load_p1ulv10128_1 conn=wye bus1=p1ulv10128.1 kV=0.12 Vminpu=0.8 Vmaxpu=1.2 model=1 kW=3.963001053413761 kvar=0.9410786890170905 Phases=1 yearly=res_kw_1256_pu

New Load.load_p1ulv10128_2 conn=wye bus1=p1ulv10128.2 kV=0.12 Vminpu=0.8 Vmaxpu=1.2 model=1 kW=3.963001053413761 kvar=0.9410786890170905 Phases=1 yearly=res_kw_1256_pu

New Load.load_p1ulv11624_1 conn=wye bus1=p1ulv11624.1 kV=0.12 Vminpu=0.8 Vmaxpu=1.2 model=1 kW=8.447919937810639 kvar=4.074999759912348 Phases=1 yearly=res_kw_461_pu

New Load.load_p1ulv11624_2 conn=wye bus1=p1ulv11624.2 kV=0.12 Vminpu=0.8 Vmaxpu=1.2 model=1 kW=8.447919937810639 kvar=4.074999759912348 Phases=1 yearly=res_kw_461_pu

New Load.load_p1ulv11625_1 conn=wye bus1=p1ulv11624.1 kV=0.12 Vminpu=0.8 Vmaxpu=1.2 model=1 kW=2.0903747651596376 kvar=0.7957076388263523 Phases=1 yearly=res_kw_1223_pu

New Load.load_p1ulv11625_2 conn=wye bus1=p1ulv11624.2 kV=0.12 Vminpu=0.8 Vmaxpu=1.2 model=1 kW=2.0903747651596376 kvar=0.7957076388263523 Phases=1 yearly=res_kw_1223_pu

New Load.load_p1ulv11626_1 conn=wye bus1=p1ulv11626.1 kV=0.12 Vminpu=0.8 Vmaxpu=1.2 model=1 kW=2.9178485115923896 kvar=1.0715119122844614 Phases=1 yearly=res_kw_1149_pu

New Load.load_p1ulv11626_2 conn=wye bus1=p1ulv11626.2 kV=0.12 Vminpu=0.8 Vmaxpu=1.2 model=1 kW=2.9178485115923896 kvar=1.0715119122844614 Phases=1 yearly=res_kw_1149_pu

New Load.load_p1ulv11627_1 conn=wye bus1=p1ulv11626.1 kV=0.12 Vminpu=0.8 Vmaxpu=1.2 model=1 kW=2.6241521841182514 kvar=0.8429304779950015 Phases=1 yearly=res_kw_33_pu

New Load.load_p1ulv11627_2 conn=wye bus1=p1ulv11626.2 kV=0.12 Vminpu=0.8 Vmaxpu=1.2 model=1 kW=2.6241521841182514 kvar=0.8429304779950015 Phases=1 yearly=res_kw_33_pu

New Load.load_p1ulv11628_1 conn=wye bus1=p1ulv11628.1 kV=0.12 Vminpu=0.8 Vmaxpu=1.2 model=1 kW=5.675346369339635 kvar=1.238985226090579 Phases=1 yearly=res_kw_1186_pu

New Load.load_p1ulv11628_2 conn=wye bus1=p1ulv11628.2 kV=0.12 Vminpu=0.8 Vmaxpu=1.2 model=1 kW=5.675346369339635 kvar=1.238985226090579 Phases=1 yearly=res_kw_1186_pu

New Load.load_p1ulv11629_1 conn=wye bus1=p1ulv11629.1 kV=0.12 Vminpu=0.8 Vmaxpu=1.2 model=1 kW=2.9178485115923896 kvar=1.0715119122844614 Phases=1 yearly=res_kw_1149_pu

New Load.load_p1ulv11629_2 conn=wye bus1=p1ulv11629.2 kV=0.12 Vminpu=0.8 Vmaxpu=1.2 model=1 kW=2.9178485115923896 kvar=1.0715119122844614 Phases=1 yearly=res_kw_1149_pu

New Load.load_p1ulv11630_1 conn=wye bus1=p1ulv11630.1 kV=0.12 Vminpu=0.8 Vmaxpu=1.2 model=1 kW=2.9178485115923896 kvar=1.0715119122844614 Phases=1 yearly=res_kw_1149_pu

New Load.load_p1ulv11630_2 conn=wye bus1=p1ulv11630.2 kV=0.12 Vminpu=0.8 Vmaxpu=1.2 model=1 kW=2.9178485115923896 kvar=1.0715119122844614 Phases=1 yearly=res_kw_1149_pu

New Load.load_p1ulv11631_1 conn=wye bus1=p1ulv11630.1 kV=0.12 Vminpu=0.8 Vmaxpu=1.2 model=1 kW=2.9178485115923896 kvar=1.0715119122844614 Phases=1 yearly=res_kw_1149_pu

New Load.load_p1ulv11631_2 conn=wye bus1=p1ulv11630.2 kV=0.12 Vminpu=0.8 Vmaxpu=1.2 model=1 kW=2.9178485115923896 kvar=1.0715119122844614 Phases=1 yearly=res_kw_1149_pu

New Load.load_p1ulv11632_1 conn=wye bus1=p1ulv11632.1 kV=0.12 Vminpu=0.8 Vmaxpu=1.2 model=1 kW=5.675346369339635 kvar=1.238985226090579 Phases=1 yearly=res_kw_1186_pu

New Load.load_p1ulv11632_2 conn=wye bus1=p1ulv11632.2 kV=0.12 Vminpu=0.8 Vmaxpu=1.2 model=1 kW=5.675346369339635 kvar=1.238985226090579 Phases=1 yearly=res_kw_1186_pu

New Load.load_p1ulv11633_1 conn=wye bus1=p1ulv11633.1 kV=0.12 Vminpu=0.8 Vmaxpu=1.2 model=1 kW=5.5396149838334106 kvar=1.3495096504699533 Phases=1 yearly=res_kw_1273_pu

New Load.load_p1ulv11633_2 conn=wye bus1=p1ulv11633.2 kV=0.12 Vminpu=0.8 Vmaxpu=1.2 model=1 kW=5.5396149838334106 kvar=1.3495096504699533 Phases=1 yearly=res_kw_1273_pu

New Load.load_p1ulv11634_1 conn=wye bus1=p1ulv11634.1 kV=0.12 Vminpu=0.8 Vmaxpu=1.2 model=1 kW=2.6241521841182514 kvar=0.8429304779950015 Phases=1 yearly=res_kw_33_pu

New Load.load_p1ulv11634_2 conn=wye bus1=p1ulv11634.2 kV=0.12 Vminpu=0.8 Vmaxpu=1.2 model=1 kW=2.6241521841182514 kvar=0.8429304779950015 Phases=1 yearly=res_kw_33_pu

New Load.load_p1ulv11635_1 conn=wye bus1=p1ulv11635.1 kV=0.12 Vminpu=0.8 Vmaxpu=1.2 model=1 kW=5.675346369339635 kvar=1.238985226090579 Phases=1 yearly=res_kw_1186_pu

New Load.load_p1ulv11635_2 conn=wye bus1=p1ulv11635.2 kV=0.12 Vminpu=0.8 Vmaxpu=1.2 model=1 kW=5.675346369339635 kvar=1.238985226090579 Phases=1 yearly=res_kw_1186_pu

New Load.load_p1ulv11636_1 conn=wye bus1=p1ulv11636.1 kV=0.12 Vminpu=0.8 Vmaxpu=1.2 model=1 kW=6.897997484512368 kvar=1.5073573946072503 Phases=1 yearly=res_kw_40_pu

New Load.load_p1ulv11636_2 conn=wye bus1=p1ulv11636.2 kV=0.12 Vminpu=0.8 Vmaxpu=1.2 model=1 kW=6.897997484512368 kvar=1.5073573946072503 Phases=1 yearly=res_kw_40_pu

New Load.load_p1ulv11637_1 conn=wye bus1=p1ulv11637.1 kV=0.12 Vminpu=0.8 Vmaxpu=1.2 model=1 kW=2.6241521841182514 kvar=0.8429304779950015 Phases=1 yearly=res_kw_33_pu

New Load.load_p1ulv11637_2 conn=wye bus1=p1ulv11637.2 kV=0.12 Vminpu=0.8 Vmaxpu=1.2 model=1 kW=2.6241521841182514 kvar=0.8429304779950015 Phases=1 yearly=res_kw_33_pu

New Load.load_p1ulv11638_1 conn=wye bus1=p1ulv11638.1 kV=0.12 Vminpu=0.8 Vmaxpu=1.2 model=1 kW=5.851131552538107 kvar=1.44338115693729 Phases=1 yearly=res_kw_317_pu

New Load.load_p1ulv11638_2 conn=wye bus1=p1ulv11638.2 kV=0.12 Vminpu=0.8 Vmaxpu=1.2 model=1 kW=5.851131552538107 kvar=1.44338115693729 Phases=1 yearly=res_kw_317_pu

New Load.load_p1ulv11639_1 conn=wye bus1=p1ulv11639.1 kV=0.12 Vminpu=0.8 Vmaxpu=1.2 model=1 kW=2.6241521841182514 kvar=0.8429304779950015 Phases=1 yearly=res_kw_33_pu

New Load.load_p1ulv11639_2 conn=wye bus1=p1ulv11639.2 kV=0.12 Vminpu=0.8 Vmaxpu=1.2 model=1 kW=2.6241521841182514 kvar=0.8429304779950015 Phases=1 yearly=res_kw_33_pu

New Load.load_p1ulv11640_1 conn=wye bus1=p1ulv11639.1 kV=0.12 Vminpu=0.8 Vmaxpu=1.2 model=1 kW=2.6241521841182514 kvar=0.8429304779950015 Phases=1 yearly=res_kw_33_pu

New Load.load_p1ulv11640_2 conn=wye bus1=p1ulv11639.2 kV=0.12 Vminpu=0.8 Vmaxpu=1.2 model=1 kW=2.6241521841182514 kvar=0.8429304779950015 Phases=1 yearly=res_kw_33_pu

New Load.load_p1ulv11641_1 conn=wye bus1=p1ulv11641.1 kV=0.12 Vminpu=0.8 Vmaxpu=1.2 model=1 kW=2.1376631749204993 kvar=0.6218033466021168 Phases=1 yearly=res_kw_93_pu

New Load.load_p1ulv11641_2 conn=wye bus1=p1ulv11641.2 kV=0.12 Vminpu=0.8 Vmaxpu=1.2 model=1 kW=2.1376631749204993 kvar=0.6218033466021168 Phases=1 yearly=res_kw_93_pu

New Load.load_p1ulv11642_1 conn=wye bus1=p1ulv11642.1 kV=0.12 Vminpu=0.8 Vmaxpu=1.2 model=1 kW=8.04422437787292 kvar=1.3373848866311981 Phases=1 yearly=res_kw_695_pu

New Load.load_p1ulv11642_2 conn=wye bus1=p1ulv11642.2 kV=0.12 Vminpu=0.8 Vmaxpu=1.2 model=1 kW=8.04422437787292 kvar=1.3373848866311981 Phases=1 yearly=res_kw_695_pu

New Load.load_p1ulv11643_1 conn=wye bus1=p1ulv11643.1 kV=0.12 Vminpu=0.8 Vmaxpu=1.2 model=1 kW=2.9178485115923896 kvar=1.0715119122844614 Phases=1 yearly=res_kw_1149_pu

New Load.load_p1ulv11643_2 conn=wye bus1=p1ulv11643.2 kV=0.12 Vminpu=0.8 Vmaxpu=1.2 model=1 kW=2.9178485115923896 kvar=1.0715119122844614 Phases=1 yearly=res_kw_1149_pu

New Load.load_p1ulv11644_1 conn=wye bus1=p1ulv11644.1 kV=0.12 Vminpu=0.8 Vmaxpu=1.2 model=1 kW=2.9178485115923896 kvar=1.0715119122844614 Phases=1 yearly=res_kw_1149_pu

New Load.load_p1ulv11644_2 conn=wye bus1=p1ulv11644.2 kV=0.12 Vminpu=0.8 Vmaxpu=1.2 model=1 kW=2.9178485115923896 kvar=1.0715119122844614 Phases=1 yearly=res_kw_1149_pu

New Load.load_p1ulv11645_1 conn=wye bus1=p1ulv11645.1 kV=0.12 Vminpu=0.8 Vmaxpu=1.2 model=1 kW=2.605021030189827 kvar=1.0007509371876184 Phases=1 yearly=res_kw_24_pu

New Load.load_p1ulv11645_2 conn=wye bus1=p1ulv11645.2 kV=0.12 Vminpu=0.8 Vmaxpu=1.2 model=1 kW=2.605021030189827 kvar=1.0007509371876184 Phases=1 yearly=res_kw_24_pu

New Load.load_p1ulv11646_1 conn=wye bus1=p1ulv11646.1 kV=0.12 Vminpu=0.8 Vmaxpu=1.2 model=1 kW=4.359410160991208 kvar=0.7703346328307125 Phases=1 yearly=res_kw_470_pu

New Load.load_p1ulv11646_2 conn=wye bus1=p1ulv11646.2 kV=0.12 Vminpu=0.8 Vmaxpu=1.2 model=1 kW=4.359410160991208 kvar=0.7703346328307125 Phases=1 yearly=res_kw_470_pu

New Load.load_p1ulv11647_1 conn=wye bus1=p1ulv11647.1 kV=0.12 Vminpu=0.8 Vmaxpu=1.2 model=1 kW=2.6241521841182514 kvar=0.8429304779950015 Phases=1 yearly=res_kw_33_pu

New Load.load_p1ulv11647_2 conn=wye bus1=p1ulv11647.2 kV=0.12 Vminpu=0.8 Vmaxpu=1.2 model=1 kW=2.6241521841182514 kvar=0.8429304779950015 Phases=1 yearly=res_kw_33_pu

New Load.load_p1ulv11648_1 conn=wye bus1=p1ulv11648.1 kV=0.12 Vminpu=0.8 Vmaxpu=1.2 model=1 kW=3.3701610259235064 kvar=1.065454990641787 Phases=1 yearly=res_kw_1037_pu

New Load.load_p1ulv11648_2 conn=wye bus1=p1ulv11648.2 kV=0.12 Vminpu=0.8 Vmaxpu=1.2 model=1 kW=3.3701610259235064 kvar=1.065454990641787 Phases=1 yearly=res_kw_1037_pu

New Load.load_p1ulv11649_1 conn=wye bus1=p1ulv11649.1 kV=0.12 Vminpu=0.8 Vmaxpu=1.2 model=1 kW=2.1894046505184286 kvar=0.7281040757251952 Phases=1 yearly=res_kw_1042_pu

New Load.load_p1ulv11649_2 conn=wye bus1=p1ulv11649.2 kV=0.12 Vminpu=0.8 Vmaxpu=1.2 model=1 kW=2.1894046505184286 kvar=0.7281040757251952 Phases=1 yearly=res_kw_1042_pu

New Load.load_p1ulv11650_1 conn=wye bus1=p1ulv11650.1 kV=0.12 Vminpu=0.8 Vmaxpu=1.2 model=1 kW=2.605021030189827 kvar=1.0007509371876184 Phases=1 yearly=res_kw_24_pu

New Load.load_p1ulv11650_2 conn=wye bus1=p1ulv11650.2 kV=0.12 Vminpu=0.8 Vmaxpu=1.2 model=1 kW=2.605021030189827 kvar=1.0007509371876184 Phases=1 yearly=res_kw_24_pu

New Load.load_p1ulv11651_1 conn=wye bus1=p1ulv11651.1 kV=0.12 Vminpu=0.8 Vmaxpu=1.2 model=1 kW=2.5137827263873103 kvar=0.7927782724892762 Phases=1 yearly=res_kw_621_pu

New Load.load_p1ulv11651_2 conn=wye bus1=p1ulv11651.2 kV=0.12 Vminpu=0.8 Vmaxpu=1.2 model=1 kW=2.5137827263873103 kvar=0.7927782724892762 Phases=1 yearly=res_kw_621_pu

New Load.load_p1ulv11652_1 conn=wye bus1=p1ulv11652.1 kV=0.12 Vminpu=0.8 Vmaxpu=1.2 model=1 kW=1.3741353032147752 kvar=0.58237922359024 Phases=1 yearly=res_kw_1041_pu

New Load.load_p1ulv11652_2 conn=wye bus1=p1ulv11652.2 kV=0.12 Vminpu=0.8 Vmaxpu=1.2 model=1 kW=1.3741353032147752 kvar=0.58237922359024 Phases=1 yearly=res_kw_1041_pu

New Load.load_p1ulv11653_1 conn=wye bus1=p1ulv11653.1 kV=0.12 Vminpu=0.8 Vmaxpu=1.2 model=1 kW=1.6746299650392789 kvar=0.594727774010976 Phases=1 yearly=res_kw_1276_pu

New Load.load_p1ulv11653_2 conn=wye bus1=p1ulv11653.2 kV=0.12 Vminpu=0.8 Vmaxpu=1.2 model=1 kW=1.6746299650392789 kvar=0.594727774010976 Phases=1 yearly=res_kw_1276_pu

New Load.load_p1ulv11654_1 conn=wye bus1=p1ulv11654.1 kV=0.12 Vminpu=0.8 Vmaxpu=1.2 model=1 kW=2.1376631749204993 kvar=0.6218033466021168 Phases=1 yearly=res_kw_93_pu

New Load.load_p1ulv11654_2 conn=wye bus1=p1ulv11654.2 kV=0.12 Vminpu=0.8 Vmaxpu=1.2 model=1 kW=2.1376631749204993 kvar=0.6218033466021168 Phases=1 yearly=res_kw_93_pu

New Load.load_p1ulv11655_1 conn=wye bus1=p1ulv11655.1 kV=0.12 Vminpu=0.8 Vmaxpu=1.2 model=1 kW=2.605021030189827 kvar=1.0007509371876184 Phases=1 yearly=res_kw_24_pu

New Load.load_p1ulv11655_2 conn=wye bus1=p1ulv11655.2 kV=0.12 Vminpu=0.8 Vmaxpu=1.2 model=1 kW=2.605021030189827 kvar=1.0007509371876184 Phases=1 yearly=res_kw_24_pu

New Load.load_p1ulv11656_1 conn=wye bus1=p1ulv11656.1 kV=0.12 Vminpu=0.8 Vmaxpu=1.2 model=1 kW=5.675346369339635 kvar=1.238985226090579 Phases=1 yearly=res_kw_1186_pu

New Load.load_p1ulv11656_2 conn=wye bus1=p1ulv11656.2 kV=0.12 Vminpu=0.8 Vmaxpu=1.2 model=1 kW=5.675346369339635 kvar=1.238985226090579 Phases=1 yearly=res_kw_1186_pu

New Load.load_p1ulv11657_1 conn=wye bus1=p1ulv11657.1 kV=0.12 Vminpu=0.8 Vmaxpu=1.2 model=1 kW=2.6241521841182514 kvar=0.8429304779950015 Phases=1 yearly=res_kw_33_pu

New Load.load_p1ulv11657_2 conn=wye bus1=p1ulv11657.2 kV=0.12 Vminpu=0.8 Vmaxpu=1.2 model=1 kW=2.6241521841182514 kvar=0.8429304779950015 Phases=1 yearly=res_kw_33_pu

New Load.load_p1ulv11658_1 conn=wye bus1=p1ulv11658.1 kV=0.12 Vminpu=0.8 Vmaxpu=1.2 model=1 kW=5.121080771859233 kvar=1.1807848049623457 Phases=1 yearly=res_kw_691_pu

New Load.load_p1ulv11658_2 conn=wye bus1=p1ulv11658.2 kV=0.12 Vminpu=0.8 Vmaxpu=1.2 model=1 kW=5.121080771859233 kvar=1.1807848049623457 Phases=1 yearly=res_kw_691_pu

New Load.load_p1ulv11659_1 conn=wye bus1=p1ulv11658.1 kV=0.12 Vminpu=0.8 Vmaxpu=1.2 model=1 kW=3.3701610259235064 kvar=1.065454990641787 Phases=1 yearly=res_kw_1037_pu

New Load.load_p1ulv11659_2 conn=wye bus1=p1ulv11658.2 kV=0.12 Vminpu=0.8 Vmaxpu=1.2 model=1 kW=3.3701610259235064 kvar=1.065454990641787 Phases=1 yearly=res_kw_1037_pu

New Load.load_p1ulv11660_1 conn=wye bus1=p1ulv11660.1 kV=0.12 Vminpu=0.8 Vmaxpu=1.2 model=1 kW=5.675346369339635 kvar=1.238985226090579 Phases=1 yearly=res_kw_1186_pu

New Load.load_p1ulv11660_2 conn=wye bus1=p1ulv11660.2 kV=0.12 Vminpu=0.8 Vmaxpu=1.2 model=1 kW=5.675346369339635 kvar=1.238985226090579 Phases=1 yearly=res_kw_1186_pu

New Load.load_p1ulv11661_1 conn=wye bus1=p1ulv11661.1 kV=0.12 Vminpu=0.8 Vmaxpu=1.2 model=1 kW=2.6241521841182514 kvar=0.8429304779950015 Phases=1 yearly=res_kw_33_pu

New Load.load_p1ulv11661_2 conn=wye bus1=p1ulv11661.2 kV=0.12 Vminpu=0.8 Vmaxpu=1.2 model=1 kW=2.6241521841182514 kvar=0.8429304779950015 Phases=1 yearly=res_kw_33_pu

New Load.load_p1ulv11662_1 conn=wye bus1=p1ulv11662.1 kV=0.12 Vminpu=0.8 Vmaxpu=1.2 model=1 kW=5.675346369339635 kvar=1.238985226090579 Phases=1 yearly=res_kw_1186_pu

New Load.load_p1ulv11662_2 conn=wye bus1=p1ulv11662.2 kV=0.12 Vminpu=0.8 Vmaxpu=1.2 model=1 kW=5.675346369339635 kvar=1.238985226090579 Phases=1 yearly=res_kw_1186_pu

New Load.load_p1ulv11663_1 conn=wye bus1=p1ulv11662.1 kV=0.12 Vminpu=0.8 Vmaxpu=1.2 model=1 kW=2.6241521841182514 kvar=0.8429304779950015 Phases=1 yearly=res_kw_33_pu

New Load.load_p1ulv11663_2 conn=wye bus1=p1ulv11662.2 kV=0.12 Vminpu=0.8 Vmaxpu=1.2 model=1 kW=2.6241521841182514 kvar=0.8429304779950015 Phases=1 yearly=res_kw_33_pu

New Load.load_p1ulv11664_1 conn=wye bus1=p1ulv11664.1 kV=0.12 Vminpu=0.8 Vmaxpu=1.2 model=1 kW=2.605021030189827 kvar=1.0007509371876184 Phases=1 yearly=res_kw_24_pu

New Load.load_p1ulv11664_2 conn=wye bus1=p1ulv11664.2 kV=0.12 Vminpu=0.8 Vmaxpu=1.2 model=1 kW=2.605021030189827 kvar=1.0007509371876184 Phases=1 yearly=res_kw_24_pu

New Load.load_p1ulv11665_1 conn=wye bus1=p1ulv11665.1 kV=0.12 Vminpu=0.8 Vmaxpu=1.2 model=1 kW=2.6241521841182514 kvar=0.8429304779950015 Phases=1 yearly=res_kw_33_pu

New Load.load_p1ulv11665_2 conn=wye bus1=p1ulv11665.2 kV=0.12 Vminpu=0.8 Vmaxpu=1.2 model=1 kW=2.6241521841182514 kvar=0.8429304779950015 Phases=1 yearly=res_kw_33_pu

New Load.load_p1ulv11666_1 conn=wye bus1=p1ulv11666.1 kV=0.12 Vminpu=0.8 Vmaxpu=1.2 model=1 kW=2.605021030189827 kvar=1.0007509371876184 Phases=1 yearly=res_kw_24_pu

New Load.load_p1ulv11666_2 conn=wye bus1=p1ulv11666.2 kV=0.12 Vminpu=0.8 Vmaxpu=1.2 model=1 kW=2.605021030189827 kvar=1.0007509371876184 Phases=1 yearly=res_kw_24_pu

New Load.load_p1ulv11667_1 conn=wye bus1=p1ulv11667.1 kV=0.12 Vminpu=0.8 Vmaxpu=1.2 model=1 kW=6.495867403886884 kvar=1.0074089308244782 Phases=1 yearly=res_kw_597_pu

New Load.load_p1ulv11667_2 conn=wye bus1=p1ulv11667.2 kV=0.12 Vminpu=0.8 Vmaxpu=1.2 model=1 kW=6.495867403886884 kvar=1.0074089308244782 Phases=1 yearly=res_kw_597_pu

New Load.load_p1ulv11668_1 conn=wye bus1=p1ulv11668.1 kV=0.12 Vminpu=0.8 Vmaxpu=1.2 model=1 kW=2.6241521841182514 kvar=0.8429304779950015 Phases=1 yearly=res_kw_33_pu

New Load.load_p1ulv11668_2 conn=wye bus1=p1ulv11668.2 kV=0.12 Vminpu=0.8 Vmaxpu=1.2 model=1 kW=2.6241521841182514 kvar=0.8429304779950015 Phases=1 yearly=res_kw_33_pu

New Load.load_p1ulv11669_1 conn=wye bus1=p1ulv11668.1 kV=0.12 Vminpu=0.8 Vmaxpu=1.2 model=1 kW=7.151603169892386 kvar=1.493762478537685 Phases=1 yearly=res_kw_30_pu

New Load.load_p1ulv11669_2 conn=wye bus1=p1ulv11668.2 kV=0.12 Vminpu=0.8 Vmaxpu=1.2 model=1 kW=7.151603169892386 kvar=1.493762478537685 Phases=1 yearly=res_kw_30_pu

New Load.load_p1ulv11670_1 conn=wye bus1=p1ulv11670.1 kV=0.12 Vminpu=0.8 Vmaxpu=1.2 model=1 kW=7.151603169892386 kvar=1.493762478537685 Phases=1 yearly=res_kw_30_pu

New Load.load_p1ulv11670_2 conn=wye bus1=p1ulv11670.2 kV=0.12 Vminpu=0.8 Vmaxpu=1.2 model=1 kW=7.151603169892386 kvar=1.493762478537685 Phases=1 yearly=res_kw_30_pu

New Load.load_p1ulv11671_1 conn=wye bus1=p1ulv11671.1 kV=0.12 Vminpu=0.8 Vmaxpu=1.2 model=1 kW=2.6241521841182514 kvar=0.8429304779950015 Phases=1 yearly=res_kw_33_pu

New Load.load_p1ulv11671_2 conn=wye bus1=p1ulv11671.2 kV=0.12 Vminpu=0.8 Vmaxpu=1.2 model=1 kW=2.6241521841182514 kvar=0.8429304779950015 Phases=1 yearly=res_kw_33_pu

New Load.load_p1ulv11672_1 conn=wye bus1=p1ulv11672.1 kV=0.12 Vminpu=0.8 Vmaxpu=1.2 model=1 kW=4.8375139025721365 kvar=0.35349025429812664 Phases=1 yearly=com_kw_13636_pu

New Load.load_p1ulv11672_2 conn=wye bus1=p1ulv11672.2 kV=0.12 Vminpu=0.8 Vmaxpu=1.2 model=1 kW=4.8375139025721365 kvar=0.35349025429812664 Phases=1 yearly=com_kw_13636_pu

New Load.load_p1ulv11673_1 conn=wye bus1=p1ulv11673.1 kV=0.12 Vminpu=0.8 Vmaxpu=1.2 model=1 kW=6.561178817157376 kvar=1.3046203108505008 Phases=1 yearly=com_kw_14250_pu

New Load.load_p1ulv11673_2 conn=wye bus1=p1ulv11673.2 kV=0.12 Vminpu=0.8 Vmaxpu=1.2 model=1 kW=6.561178817157376 kvar=1.3046203108505008 Phases=1 yearly=com_kw_14250_pu

New Load.load_p1ulv11674_1 conn=wye bus1=p1ulv11674.1 kV=0.12 Vminpu=0.8 Vmaxpu=1.2 model=1 kW=5.5396149838334106 kvar=1.3495096504699533 Phases=1 yearly=res_kw_1273_pu

New Load.load_p1ulv11674_2 conn=wye bus1=p1ulv11674.2 kV=0.12 Vminpu=0.8 Vmaxpu=1.2 model=1 kW=5.5396149838334106 kvar=1.3495096504699533 Phases=1 yearly=res_kw_1273_pu

New Load.load_p1ulv11675_1 conn=wye bus1=p1ulv11675.1 kV=0.12 Vminpu=0.8 Vmaxpu=1.2 model=1 kW=2.6241521841182514 kvar=0.8429304779950015 Phases=1 yearly=res_kw_33_pu

New Load.load_p1ulv11675_2 conn=wye bus1=p1ulv11675.2 kV=0.12 Vminpu=0.8 Vmaxpu=1.2 model=1 kW=2.6241521841182514 kvar=0.8429304779950015 Phases=1 yearly=res_kw_33_pu

New Load.load_p1ulv11676_1 conn=wye bus1=p1ulv11676.1 kV=0.12 Vminpu=0.8 Vmaxpu=1.2 model=1 kW=3.3701610259235064 kvar=1.065454990641787 Phases=1 yearly=res_kw_1037_pu

New Load.load_p1ulv11676_2 conn=wye bus1=p1ulv11676.2 kV=0.12 Vminpu=0.8 Vmaxpu=1.2 model=1 kW=3.3701610259235064 kvar=1.065454990641787 Phases=1 yearly=res_kw_1037_pu

New Load.load_p1ulv11677_1 conn=wye bus1=p1ulv11676.1 kV=0.12 Vminpu=0.8 Vmaxpu=1.2 model=1 kW=3.3701610259235064 kvar=1.065454990641787 Phases=1 yearly=res_kw_1037_pu

New Load.load_p1ulv11677_2 conn=wye bus1=p1ulv11676.2 kV=0.12 Vminpu=0.8 Vmaxpu=1.2 model=1 kW=3.3701610259235064 kvar=1.065454990641787 Phases=1 yearly=res_kw_1037_pu

New Load.load_p1ulv11678_1 conn=wye bus1=p1ulv11678.1 kV=0.12 Vminpu=0.8 Vmaxpu=1.2 model=1 kW=2.6241521841182514 kvar=0.8429304779950015 Phases=1 yearly=res_kw_33_pu

New Load.load_p1ulv11678_2 conn=wye bus1=p1ulv11678.2 kV=0.12 Vminpu=0.8 Vmaxpu=1.2 model=1 kW=2.6241521841182514 kvar=0.8429304779950015 Phases=1 yearly=res_kw_33_pu

New Load.load_p1ulv11679_1 conn=wye bus1=p1ulv11679.1 kV=0.12 Vminpu=0.8 Vmaxpu=1.2 model=1 kW=2.6241521841182514 kvar=0.8429304779950015 Phases=1 yearly=res_kw_33_pu

New Load.load_p1ulv11679_2 conn=wye bus1=p1ulv11679.2 kV=0.12 Vminpu=0.8 Vmaxpu=1.2 model=1 kW=2.6241521841182514 kvar=0.8429304779950015 Phases=1 yearly=res_kw_33_pu

New Load.load_p1ulv11680_1 conn=wye bus1=p1ulv11680.1 kV=0.12 Vminpu=0.8 Vmaxpu=1.2 model=1 kW=2.6241521841182514 kvar=0.8429304779950015 Phases=1 yearly=res_kw_33_pu

New Load.load_p1ulv11680_2 conn=wye bus1=p1ulv11680.2 kV=0.12 Vminpu=0.8 Vmaxpu=1.2 model=1 kW=2.6241521841182514 kvar=0.8429304779950015 Phases=1 yearly=res_kw_33_pu

New Load.load_p1ulv11681_1 conn=wye bus1=p1ulv11681.1 kV=0.12 Vminpu=0.8 Vmaxpu=1.2 model=1 kW=2.6241521841182514 kvar=0.8429304779950015 Phases=1 yearly=res_kw_33_pu

New Load.load_p1ulv11681_2 conn=wye bus1=p1ulv11681.2 kV=0.12 Vminpu=0.8 Vmaxpu=1.2 model=1 kW=2.6241521841182514 kvar=0.8429304779950015 Phases=1 yearly=res_kw_33_pu

New Load.load_p1ulv11682_1 conn=wye bus1=p1ulv11682.1 kV=0.12 Vminpu=0.8 Vmaxpu=1.2 model=1 kW=0.8155215330625105 kvar=0.30217793028689777 Phases=1 yearly=res_kw_1270_pu

New Load.load_p1ulv11682_2 conn=wye bus1=p1ulv11682.2 kV=0.12 Vminpu=0.8 Vmaxpu=1.2 model=1 kW=0.8155215330625105 kvar=0.30217793028689777 Phases=1 yearly=res_kw_1270_pu

New Load.load_p1ulv11683_1 conn=wye bus1=p1ulv11683.1 kV=0.12 Vminpu=0.8 Vmaxpu=1.2 model=1 kW=2.9178485115923896 kvar=1.0715119122844614 Phases=1 yearly=res_kw_1149_pu

New Load.load_p1ulv11683_2 conn=wye bus1=p1ulv11683.2 kV=0.12 Vminpu=0.8 Vmaxpu=1.2 model=1 kW=2.9178485115923896 kvar=1.0715119122844614 Phases=1 yearly=res_kw_1149_pu

New Load.load_p1ulv11684_1 conn=wye bus1=p1ulv11683.1 kV=0.12 Vminpu=0.8 Vmaxpu=1.2 model=1 kW=1.7932717143582468 kvar=0.4137486634368157 Phases=1 yearly=res_kw_931_pu

New Load.load_p1ulv11684_2 conn=wye bus1=p1ulv11683.2 kV=0.12 Vminpu=0.8 Vmaxpu=1.2 model=1 kW=1.7932717143582468 kvar=0.4137486634368157 Phases=1 yearly=res_kw_931_pu

New Load.load_p1ulv11685_1 conn=wye bus1=p1ulv11685.1 kV=0.12 Vminpu=0.8 Vmaxpu=1.2 model=1 kW=3.3701610259235064 kvar=1.065454990641787 Phases=1 yearly=res_kw_1037_pu

New Load.load_p1ulv11685_2 conn=wye bus1=p1ulv11685.2 kV=0.12 Vminpu=0.8 Vmaxpu=1.2 model=1 kW=3.3701610259235064 kvar=1.065454990641787 Phases=1 yearly=res_kw_1037_pu

New Load.load_p1ulv11686_1 conn=wye bus1=p1ulv11686.1 kV=0.12 Vminpu=0.8 Vmaxpu=1.2 model=1 kW=2.1376631749204993 kvar=0.6218033466021168 Phases=1 yearly=res_kw_93_pu

New Load.load_p1ulv11686_2 conn=wye bus1=p1ulv11686.2 kV=0.12 Vminpu=0.8 Vmaxpu=1.2 model=1 kW=2.1376631749204993 kvar=0.6218033466021168 Phases=1 yearly=res_kw_93_pu
