New Load.load_p1ulv3149_1 conn=wye bus1=p1ulv3149.1 kV=0.12 Vminpu=0.8 Vmaxpu=1.2 model=1 kW=9.341738473663403 kvar=2.018548151169967 Phases=1 yearly=res_kw_504_pu

New Load.load_p1ulv3149_2 conn=wye bus1=p1ulv3149.2 kV=0.12 Vminpu=0.8 Vmaxpu=1.2 model=1 kW=9.341738473663403 kvar=2.018548151169967 Phases=1 yearly=res_kw_504_pu

New Load.load_p1ulv3150_1 conn=wye bus1=p1ulv3150.1 kV=0.12 Vminpu=0.8 Vmaxpu=1.2 model=1 kW=5.991566549041883 kvar=1.4552695367795996 Phases=1 yearly=res_kw_1283_pu

New Load.load_p1ulv3150_2 conn=wye bus1=p1ulv3150.2 kV=0.12 Vminpu=0.8 Vmaxpu=1.2 model=1 kW=5.991566549041883 kvar=1.4552695367795996 Phases=1 yearly=res_kw_1283_pu

New Load.load_p1ulv3151_1 conn=wye bus1=p1ulv3151.1 kV=0.12 Vminpu=0.8 Vmaxpu=1.2 model=1 kW=2.40000228705824 kvar=1.0173787262529668 Phases=1 yearly=res_kw_1205_pu

New Load.load_p1ulv3151_2 conn=wye bus1=p1ulv3151.2 kV=0.12 Vminpu=0.8 Vmaxpu=1.2 model=1 kW=2.40000228705824 kvar=1.0173787262529668 Phases=1 yearly=res_kw_1205_pu

New Load.load_p1ulv3152_1 conn=wye bus1=p1ulv3152.1 kV=0.12 Vminpu=0.8 Vmaxpu=1.2 model=1 kW=3.8748715750127736 kvar=1.5614372175332516 Phases=1 yearly=res_kw_517_pu

New Load.load_p1ulv3152_2 conn=wye bus1=p1ulv3152.2 kV=0.12 Vminpu=0.8 Vmaxpu=1.2 model=1 kW=3.8748715750127736 kvar=1.5614372175332516 Phases=1 yearly=res_kw_517_pu

New Load.load_p1ulv3153_1 conn=wye bus1=p1ulv3153.1 kV=0.12 Vminpu=0.8 Vmaxpu=1.2 model=1 kW=5.436729579526792 kvar=1.2488470964899614 Phases=1 yearly=res_kw_454_pu

New Load.load_p1ulv3153_2 conn=wye bus1=p1ulv3153.2 kV=0.12 Vminpu=0.8 Vmaxpu=1.2 model=1 kW=5.436729579526792 kvar=1.2488470964899614 Phases=1 yearly=res_kw_454_pu

New Load.load_p1ulv3154_1 conn=wye bus1=p1ulv3154.1 kV=0.12 Vminpu=0.8 Vmaxpu=1.2 model=1 kW=2.40000228705824 kvar=1.0173787262529668 Phases=1 yearly=res_kw_1205_pu

New Load.load_p1ulv3154_2 conn=wye bus1=p1ulv3154.2 kV=0.12 Vminpu=0.8 Vmaxpu=1.2 model=1 kW=2.40000228705824 kvar=1.0173787262529668 Phases=1 yearly=res_kw_1205_pu

New Load.load_p1ulv3155_1 conn=wye bus1=p1ulv3155.1 kV=0.12 Vminpu=0.8 Vmaxpu=1.2 model=1 kW=7.7578735794910925 kvar=1.9049941012910125 Phases=1 yearly=res_kw_863_pu

New Load.load_p1ulv3155_2 conn=wye bus1=p1ulv3155.2 kV=0.12 Vminpu=0.8 Vmaxpu=1.2 model=1 kW=7.7578735794910925 kvar=1.9049941012910125 Phases=1 yearly=res_kw_863_pu

New Load.load_p1ulv3156_1 conn=wye bus1=p1ulv3156.1 kV=0.12 Vminpu=0.8 Vmaxpu=1.2 model=1 kW=3.6844020253442458 kvar=1.4451491397155931 Phases=1 yearly=res_kw_1258_pu

New Load.load_p1ulv3156_2 conn=wye bus1=p1ulv3156.2 kV=0.12 Vminpu=0.8 Vmaxpu=1.2 model=1 kW=3.6844020253442458 kvar=1.4451491397155931 Phases=1 yearly=res_kw_1258_pu

New Load.load_p1ulv3157_1 conn=wye bus1=p1ulv3157.1 kV=0.12 Vminpu=0.8 Vmaxpu=1.2 model=1 kW=3.8748715750127736 kvar=1.5614372175332516 Phases=1 yearly=res_kw_517_pu

New Load.load_p1ulv3157_2 conn=wye bus1=p1ulv3157.2 kV=0.12 Vminpu=0.8 Vmaxpu=1.2 model=1 kW=3.8748715750127736 kvar=1.5614372175332516 Phases=1 yearly=res_kw_517_pu

New Load.load_p1ulv3158_1 conn=wye bus1=p1ulv3158.1 kV=0.12 Vminpu=0.8 Vmaxpu=1.2 model=1 kW=3.6844020253442458 kvar=1.4451491397155931 Phases=1 yearly=res_kw_1258_pu

New Load.load_p1ulv3158_2 conn=wye bus1=p1ulv3158.2 kV=0.12 Vminpu=0.8 Vmaxpu=1.2 model=1 kW=3.6844020253442458 kvar=1.4451491397155931 Phases=1 yearly=res_kw_1258_pu

New Load.load_p1ulv3159_1 conn=wye bus1=p1ulv3159.1 kV=0.12 Vminpu=0.8 Vmaxpu=1.2 model=1 kW=2.40000228705824 kvar=1.0173787262529668 Phases=1 yearly=res_kw_1205_pu

New Load.load_p1ulv3159_2 conn=wye bus1=p1ulv3159.2 kV=0.12 Vminpu=0.8 Vmaxpu=1.2 model=1 kW=2.40000228705824 kvar=1.0173787262529668 Phases=1 yearly=res_kw_1205_pu

New Load.load_p1ulv3160_1 conn=wye bus1=p1ulv3160.1 kV=0.12 Vminpu=0.8 Vmaxpu=1.2 model=1 kW=4.78815623948431 kvar=1.2110296754961107 Phases=1 yearly=res_kw_842_pu

New Load.load_p1ulv3160_2 conn=wye bus1=p1ulv3160.2 kV=0.12 Vminpu=0.8 Vmaxpu=1.2 model=1 kW=4.78815623948431 kvar=1.2110296754961107 Phases=1 yearly=res_kw_842_pu

New Load.load_p1ulv3161_1 conn=wye bus1=p1ulv3161.1 kV=0.12 Vminpu=0.8 Vmaxpu=1.2 model=1 kW=5.436729579526792 kvar=1.2488470964899614 Phases=1 yearly=res_kw_454_pu

New Load.load_p1ulv3161_2 conn=wye bus1=p1ulv3161.2 kV=0.12 Vminpu=0.8 Vmaxpu=1.2 model=1 kW=5.436729579526792 kvar=1.2488470964899614 Phases=1 yearly=res_kw_454_pu

New Load.load_p1ulv3162_1 conn=wye bus1=p1ulv3162.1 kV=0.12 Vminpu=0.8 Vmaxpu=1.2 model=1 kW=3.8748715750127736 kvar=1.5614372175332516 Phases=1 yearly=res_kw_517_pu

New Load.load_p1ulv3162_2 conn=wye bus1=p1ulv3162.2 kV=0.12 Vminpu=0.8 Vmaxpu=1.2 model=1 kW=3.8748715750127736 kvar=1.5614372175332516 Phases=1 yearly=res_kw_517_pu

New Load.load_p1ulv3163_1 conn=wye bus1=p1ulv3163.1 kV=0.12 Vminpu=0.8 Vmaxpu=1.2 model=1 kW=3.469755020859998 kvar=0.8941520384931253 Phases=1 yearly=res_kw_4_pu

New Load.load_p1ulv3163_2 conn=wye bus1=p1ulv3163.2 kV=0.12 Vminpu=0.8 Vmaxpu=1.2 model=1 kW=3.469755020859998 kvar=0.8941520384931253 Phases=1 yearly=res_kw_4_pu

New Load.load_p1ulv3164_1 conn=wye bus1=p1ulv3164.1 kV=0.12 Vminpu=0.8 Vmaxpu=1.2 model=1 kW=5.436729579526792 kvar=1.2488470964899614 Phases=1 yearly=res_kw_454_pu

New Load.load_p1ulv3164_2 conn=wye bus1=p1ulv3164.2 kV=0.12 Vminpu=0.8 Vmaxpu=1.2 model=1 kW=5.436729579526792 kvar=1.2488470964899614 Phases=1 yearly=res_kw_454_pu

New Load.load_p1ulv3165_1 conn=wye bus1=p1ulv3165.1 kV=0.12 Vminpu=0.8 Vmaxpu=1.2 model=1 kW=3.789884331965197 kvar=1.0036576715582408 Phases=1 yearly=res_kw_670_pu

New Load.load_p1ulv3165_2 conn=wye bus1=p1ulv3165.2 kV=0.12 Vminpu=0.8 Vmaxpu=1.2 model=1 kW=3.789884331965197 kvar=1.0036576715582408 Phases=1 yearly=res_kw_670_pu

New Load.load_p1ulv3166_1 conn=wye bus1=p1ulv3166.1 kV=0.12 Vminpu=0.8 Vmaxpu=1.2 model=1 kW=5.436729579526792 kvar=1.2488470964899614 Phases=1 yearly=res_kw_454_pu

New Load.load_p1ulv3166_2 conn=wye bus1=p1ulv3166.2 kV=0.12 Vminpu=0.8 Vmaxpu=1.2 model=1 kW=5.436729579526792 kvar=1.2488470964899614 Phases=1 yearly=res_kw_454_pu

New Load.load_p1ulv3167_1 conn=wye bus1=p1ulv3167.1 kV=0.12 Vminpu=0.8 Vmaxpu=1.2 model=1 kW=2.40000228705824 kvar=1.0173787262529668 Phases=1 yearly=res_kw_1205_pu

New Load.load_p1ulv3167_2 conn=wye bus1=p1ulv3167.2 kV=0.12 Vminpu=0.8 Vmaxpu=1.2 model=1 kW=2.40000228705824 kvar=1.0173787262529668 Phases=1 yearly=res_kw_1205_pu

New Load.load_p1ulv3168_1 conn=wye bus1=p1ulv3168.1 kV=0.12 Vminpu=0.8 Vmaxpu=1.2 model=1 kW=2.40000228705824 kvar=1.0173787262529668 Phases=1 yearly=res_kw_1205_pu

New Load.load_p1ulv3168_2 conn=wye bus1=p1ulv3168.2 kV=0.12 Vminpu=0.8 Vmaxpu=1.2 model=1 kW=2.40000228705824 kvar=1.0173787262529668 Phases=1 yearly=res_kw_1205_pu

New Load.load_p1ulv3169_1 conn=wye bus1=p1ulv3169.1 kV=0.12 Vminpu=0.8 Vmaxpu=1.2 model=1 kW=4.8861141847383 kvar=1.2417687859549835 Phases=1 yearly=res_kw_549_pu

New Load.load_p1ulv3169_2 conn=wye bus1=p1ulv3169.2 kV=0.12 Vminpu=0.8 Vmaxpu=1.2 model=1 kW=4.8861141847383 kvar=1.2417687859549835 Phases=1 yearly=res_kw_549_pu

New Load.load_p1ulv3170_1 conn=wye bus1=p1ulv3170.1 kV=0.12 Vminpu=0.8 Vmaxpu=1.2 model=1 kW=2.916803644387601 kvar=0.11499518252231355 Phases=1 yearly=res_kw_1094_pu

New Load.load_p1ulv3170_2 conn=wye bus1=p1ulv3170.2 kV=0.12 Vminpu=0.8 Vmaxpu=1.2 model=1 kW=2.916803644387601 kvar=0.11499518252231355 Phases=1 yearly=res_kw_1094_pu

New Load.load_p1ulv3171_1 conn=wye bus1=p1ulv3171.1 kV=0.12 Vminpu=0.8 Vmaxpu=1.2 model=1 kW=3.8748715750127736 kvar=1.5614372175332516 Phases=1 yearly=res_kw_517_pu

New Load.load_p1ulv3171_2 conn=wye bus1=p1ulv3171.2 kV=0.12 Vminpu=0.8 Vmaxpu=1.2 model=1 kW=3.8748715750127736 kvar=1.5614372175332516 Phases=1 yearly=res_kw_517_pu

New Load.load_p1ulv3172_1 conn=wye bus1=p1ulv3172.1 kV=0.12 Vminpu=0.8 Vmaxpu=1.2 model=1 kW=3.8029744718879392 kvar=1.1462670306842289 Phases=1 yearly=res_kw_263_pu

New Load.load_p1ulv3172_2 conn=wye bus1=p1ulv3172.2 kV=0.12 Vminpu=0.8 Vmaxpu=1.2 model=1 kW=3.8029744718879392 kvar=1.1462670306842289 Phases=1 yearly=res_kw_263_pu

New Load.load_p1ulv3173_1 conn=wye bus1=p1ulv3173.1 kV=0.12 Vminpu=0.8 Vmaxpu=1.2 model=1 kW=7.259772519581312 kvar=1.3210086815250959 Phases=1 yearly=res_kw_128_pu

New Load.load_p1ulv3173_2 conn=wye bus1=p1ulv3173.2 kV=0.12 Vminpu=0.8 Vmaxpu=1.2 model=1 kW=7.259772519581312 kvar=1.3210086815250959 Phases=1 yearly=res_kw_128_pu

New Load.load_p1ulv3174_1 conn=wye bus1=p1ulv3174.1 kV=0.12 Vminpu=0.8 Vmaxpu=1.2 model=1 kW=8.038199047739793 kvar=1.8120887952584321 Phases=1 yearly=res_kw_169_pu

New Load.load_p1ulv3174_2 conn=wye bus1=p1ulv3174.2 kV=0.12 Vminpu=0.8 Vmaxpu=1.2 model=1 kW=8.038199047739793 kvar=1.8120887952584321 Phases=1 yearly=res_kw_169_pu

New Load.load_p1ulv3175_1 conn=wye bus1=p1ulv3175.1 kV=0.12 Vminpu=0.8 Vmaxpu=1.2 model=1 kW=3.8029744718879392 kvar=1.1462670306842289 Phases=1 yearly=res_kw_263_pu

New Load.load_p1ulv3175_2 conn=wye bus1=p1ulv3175.2 kV=0.12 Vminpu=0.8 Vmaxpu=1.2 model=1 kW=3.8029744718879392 kvar=1.1462670306842289 Phases=1 yearly=res_kw_263_pu

New Load.load_p1ulv3176_1 conn=wye bus1=p1ulv3176.1 kV=0.12 Vminpu=0.8 Vmaxpu=1.2 model=1 kW=3.6844020253442458 kvar=1.4451491397155931 Phases=1 yearly=res_kw_1258_pu

New Load.load_p1ulv3176_2 conn=wye bus1=p1ulv3176.2 kV=0.12 Vminpu=0.8 Vmaxpu=1.2 model=1 kW=3.6844020253442458 kvar=1.4451491397155931 Phases=1 yearly=res_kw_1258_pu

New Load.load_p1ulv3177_1 conn=wye bus1=p1ulv3177.1 kV=0.12 Vminpu=0.8 Vmaxpu=1.2 model=1 kW=3.8748715750127736 kvar=1.5614372175332516 Phases=1 yearly=res_kw_517_pu

New Load.load_p1ulv3177_2 conn=wye bus1=p1ulv3177.2 kV=0.12 Vminpu=0.8 Vmaxpu=1.2 model=1 kW=3.8748715750127736 kvar=1.5614372175332516 Phases=1 yearly=res_kw_517_pu

New Load.load_p1ulv3178_1 conn=wye bus1=p1ulv3178.1 kV=0.12 Vminpu=0.8 Vmaxpu=1.2 model=1 kW=5.163806898070874 kvar=0.9381412991116911 Phases=1 yearly=res_kw_98_pu

New Load.load_p1ulv3178_2 conn=wye bus1=p1ulv3178.2 kV=0.12 Vminpu=0.8 Vmaxpu=1.2 model=1 kW=5.163806898070874 kvar=0.9381412991116911 Phases=1 yearly=res_kw_98_pu

New Load.load_p1ulv3179_1 conn=wye bus1=p1ulv3179.1 kV=0.12 Vminpu=0.8 Vmaxpu=1.2 model=1 kW=4.78815623948431 kvar=1.2110296754961107 Phases=1 yearly=res_kw_842_pu

New Load.load_p1ulv3179_2 conn=wye bus1=p1ulv3179.2 kV=0.12 Vminpu=0.8 Vmaxpu=1.2 model=1 kW=4.78815623948431 kvar=1.2110296754961107 Phases=1 yearly=res_kw_842_pu

New Load.load_p1ulv3180_1 conn=wye bus1=p1ulv3179.1 kV=0.12 Vminpu=0.8 Vmaxpu=1.2 model=1 kW=4.78815623948431 kvar=1.2110296754961107 Phases=1 yearly=res_kw_842_pu

New Load.load_p1ulv3180_2 conn=wye bus1=p1ulv3179.2 kV=0.12 Vminpu=0.8 Vmaxpu=1.2 model=1 kW=4.78815623948431 kvar=1.2110296754961107 Phases=1 yearly=res_kw_842_pu

New Load.load_p1ulv3181_1 conn=wye bus1=p1ulv3181.1 kV=0.12 Vminpu=0.8 Vmaxpu=1.2 model=1 kW=4.78815623948431 kvar=1.2110296754961107 Phases=1 yearly=res_kw_842_pu

New Load.load_p1ulv3181_2 conn=wye bus1=p1ulv3181.2 kV=0.12 Vminpu=0.8 Vmaxpu=1.2 model=1 kW=4.78815623948431 kvar=1.2110296754961107 Phases=1 yearly=res_kw_842_pu

New Load.load_p1ulv3182_1 conn=wye bus1=p1ulv3182.1 kV=0.12 Vminpu=0.8 Vmaxpu=1.2 model=1 kW=3.8029744718879392 kvar=1.1462670306842289 Phases=1 yearly=res_kw_263_pu

New Load.load_p1ulv3182_2 conn=wye bus1=p1ulv3182.2 kV=0.12 Vminpu=0.8 Vmaxpu=1.2 model=1 kW=3.8029744718879392 kvar=1.1462670306842289 Phases=1 yearly=res_kw_263_pu

New Load.load_p1ulv3183_1 conn=wye bus1=p1ulv3183.1 kV=0.12 Vminpu=0.8 Vmaxpu=1.2 model=1 kW=14.404204781856079 kvar=3.036808033672637 Phases=1 yearly=res_kw_560_pu

New Load.load_p1ulv3183_2 conn=wye bus1=p1ulv3183.2 kV=0.12 Vminpu=0.8 Vmaxpu=1.2 model=1 kW=14.404204781856079 kvar=3.036808033672637 Phases=1 yearly=res_kw_560_pu

New Load.load_p1ulv3184_1 conn=wye bus1=p1ulv3184.1 kV=0.12 Vminpu=0.8 Vmaxpu=1.2 model=1 kW=2.40000228705824 kvar=1.0173787262529668 Phases=1 yearly=res_kw_1205_pu

New Load.load_p1ulv3184_2 conn=wye bus1=p1ulv3184.2 kV=0.12 Vminpu=0.8 Vmaxpu=1.2 model=1 kW=2.40000228705824 kvar=1.0173787262529668 Phases=1 yearly=res_kw_1205_pu

New Load.load_p1ulv3185_1 conn=wye bus1=p1ulv3185.1 kV=0.12 Vminpu=0.8 Vmaxpu=1.2 model=1 kW=2.40000228705824 kvar=1.0173787262529668 Phases=1 yearly=res_kw_1205_pu

New Load.load_p1ulv3185_2 conn=wye bus1=p1ulv3185.2 kV=0.12 Vminpu=0.8 Vmaxpu=1.2 model=1 kW=2.40000228705824 kvar=1.0173787262529668 Phases=1 yearly=res_kw_1205_pu

New Load.load_p1ulv3186_1 conn=wye bus1=p1ulv3186.1 kV=0.12 Vminpu=0.8 Vmaxpu=1.2 model=1 kW=3.8748715750127736 kvar=1.5614372175332516 Phases=1 yearly=res_kw_517_pu

New Load.load_p1ulv3186_2 conn=wye bus1=p1ulv3186.2 kV=0.12 Vminpu=0.8 Vmaxpu=1.2 model=1 kW=3.8748715750127736 kvar=1.5614372175332516 Phases=1 yearly=res_kw_517_pu

New Load.load_p1ulv3187_1 conn=wye bus1=p1ulv3186.1 kV=0.12 Vminpu=0.8 Vmaxpu=1.2 model=1 kW=2.40000228705824 kvar=1.0173787262529668 Phases=1 yearly=res_kw_1205_pu

New Load.load_p1ulv3187_2 conn=wye bus1=p1ulv3186.2 kV=0.12 Vminpu=0.8 Vmaxpu=1.2 model=1 kW=2.40000228705824 kvar=1.0173787262529668 Phases=1 yearly=res_kw_1205_pu

New Load.load_p1ulv3188_1 conn=wye bus1=p1ulv3188.1 kV=0.12 Vminpu=0.8 Vmaxpu=1.2 model=1 kW=3.6844020253442458 kvar=1.4451491397155931 Phases=1 yearly=res_kw_1258_pu

New Load.load_p1ulv3188_2 conn=wye bus1=p1ulv3188.2 kV=0.12 Vminpu=0.8 Vmaxpu=1.2 model=1 kW=3.6844020253442458 kvar=1.4451491397155931 Phases=1 yearly=res_kw_1258_pu

New Load.load_p1ulv3189_1 conn=wye bus1=p1ulv3189.1 kV=0.12 Vminpu=0.8 Vmaxpu=1.2 model=1 kW=2.6241521841182514 kvar=0.8429304779950015 Phases=1 yearly=res_kw_33_pu

New Load.load_p1ulv3189_2 conn=wye bus1=p1ulv3189.2 kV=0.12 Vminpu=0.8 Vmaxpu=1.2 model=1 kW=2.6241521841182514 kvar=0.8429304779950015 Phases=1 yearly=res_kw_33_pu

New Load.load_p1ulv3190_1 conn=wye bus1=p1ulv3190.1 kV=0.12 Vminpu=0.8 Vmaxpu=1.2 model=1 kW=4.78815623948431 kvar=1.2110296754961107 Phases=1 yearly=res_kw_842_pu

New Load.load_p1ulv3190_2 conn=wye bus1=p1ulv3190.2 kV=0.12 Vminpu=0.8 Vmaxpu=1.2 model=1 kW=4.78815623948431 kvar=1.2110296754961107 Phases=1 yearly=res_kw_842_pu

New Load.load_p1ulv3191_1 conn=wye bus1=p1ulv3191.1 kV=0.12 Vminpu=0.8 Vmaxpu=1.2 model=1 kW=4.78815623948431 kvar=1.2110296754961107 Phases=1 yearly=res_kw_842_pu

New Load.load_p1ulv3191_2 conn=wye bus1=p1ulv3191.2 kV=0.12 Vminpu=0.8 Vmaxpu=1.2 model=1 kW=4.78815623948431 kvar=1.2110296754961107 Phases=1 yearly=res_kw_842_pu

New Load.load_p1ulv3192_1 conn=wye bus1=p1ulv3192.1 kV=0.12 Vminpu=0.8 Vmaxpu=1.2 model=1 kW=2.40000228705824 kvar=1.0173787262529668 Phases=1 yearly=res_kw_1205_pu

New Load.load_p1ulv3192_2 conn=wye bus1=p1ulv3192.2 kV=0.12 Vminpu=0.8 Vmaxpu=1.2 model=1 kW=2.40000228705824 kvar=1.0173787262529668 Phases=1 yearly=res_kw_1205_pu

New Load.load_p1ulv3193_1 conn=wye bus1=p1ulv3193.1 kV=0.12 Vminpu=0.8 Vmaxpu=1.2 model=1 kW=5.436729579526792 kvar=1.2488470964899614 Phases=1 yearly=res_kw_454_pu

New Load.load_p1ulv3193_2 conn=wye bus1=p1ulv3193.2 kV=0.12 Vminpu=0.8 Vmaxpu=1.2 model=1 kW=5.436729579526792 kvar=1.2488470964899614 Phases=1 yearly=res_kw_454_pu

New Load.load_p1ulv3194_1 conn=wye bus1=p1ulv3194.1 kV=0.12 Vminpu=0.8 Vmaxpu=1.2 model=1 kW=3.6844020253442458 kvar=1.4451491397155931 Phases=1 yearly=res_kw_1258_pu

New Load.load_p1ulv3194_2 conn=wye bus1=p1ulv3194.2 kV=0.12 Vminpu=0.8 Vmaxpu=1.2 model=1 kW=3.6844020253442458 kvar=1.4451491397155931 Phases=1 yearly=res_kw_1258_pu

New Load.load_p1ulv3195_1 conn=wye bus1=p1ulv3195.1 kV=0.12 Vminpu=0.8 Vmaxpu=1.2 model=1 kW=3.8748715750127736 kvar=1.5614372175332516 Phases=1 yearly=res_kw_517_pu

New Load.load_p1ulv3195_2 conn=wye bus1=p1ulv3195.2 kV=0.12 Vminpu=0.8 Vmaxpu=1.2 model=1 kW=3.8748715750127736 kvar=1.5614372175332516 Phases=1 yearly=res_kw_517_pu

New Load.load_p1ulv3196_1 conn=wye bus1=p1ulv3196.1 kV=0.12 Vminpu=0.8 Vmaxpu=1.2 model=1 kW=2.40000228705824 kvar=1.0173787262529668 Phases=1 yearly=res_kw_1205_pu

New Load.load_p1ulv3196_2 conn=wye bus1=p1ulv3196.2 kV=0.12 Vminpu=0.8 Vmaxpu=1.2 model=1 kW=2.40000228705824 kvar=1.0173787262529668 Phases=1 yearly=res_kw_1205_pu

New Load.load_p1ulv4109_1 conn=wye bus1=p1ulv4109.1 kV=0.12 Vminpu=0.8 Vmaxpu=1.2 model=1 kW=4.359410160991208 kvar=0.7703346328307125 Phases=1 yearly=res_kw_470_pu

New Load.load_p1ulv4109_2 conn=wye bus1=p1ulv4109.2 kV=0.12 Vminpu=0.8 Vmaxpu=1.2 model=1 kW=4.359410160991208 kvar=0.7703346328307125 Phases=1 yearly=res_kw_470_pu

New Load.load_p1ulv4822_1 conn=wye bus1=p1ulv4822.1 kV=0.12 Vminpu=0.8 Vmaxpu=1.2 model=1 kW=3.789884331965197 kvar=1.0036576715582408 Phases=1 yearly=res_kw_670_pu

New Load.load_p1ulv4822_2 conn=wye bus1=p1ulv4822.2 kV=0.12 Vminpu=0.8 Vmaxpu=1.2 model=1 kW=3.789884331965197 kvar=1.0036576715582408 Phases=1 yearly=res_kw_670_pu

New Load.load_p1ulv4830_1 conn=wye bus1=p1ulv4830.1 kV=0.12 Vminpu=0.8 Vmaxpu=1.2 model=1 kW=4.817618468644212 kvar=1.1350426223715635 Phases=1 yearly=res_kw_843_pu

New Load.load_p1ulv4830_2 conn=wye bus1=p1ulv4830.2 kV=0.12 Vminpu=0.8 Vmaxpu=1.2 model=1 kW=4.817618468644212 kvar=1.1350426223715635 Phases=1 yearly=res_kw_843_pu

New Load.load_p1ulv4832_1 conn=wye bus1=p1ulv4832.1 kV=0.12 Vminpu=0.8 Vmaxpu=1.2 model=1 kW=4.47171304939181 kvar=1.1676103385976955 Phases=1 yearly=res_kw_627_pu

New Load.load_p1ulv4832_2 conn=wye bus1=p1ulv4832.2 kV=0.12 Vminpu=0.8 Vmaxpu=1.2 model=1 kW=4.47171304939181 kvar=1.1676103385976955 Phases=1 yearly=res_kw_627_pu

New Load.load_p1ulv5315_1 conn=wye bus1=p1ulv5315.1 kV=0.12 Vminpu=0.8 Vmaxpu=1.2 model=1 kW=6.484825325204597 kvar=1.6440419394084307 Phases=1 yearly=res_kw_1115_pu

New Load.load_p1ulv5315_2 conn=wye bus1=p1ulv5315.2 kV=0.12 Vminpu=0.8 Vmaxpu=1.2 model=1 kW=6.484825325204597 kvar=1.6440419394084307 Phases=1 yearly=res_kw_1115_pu

New Load.load_p1ulv5325_1 conn=wye bus1=p1ulv5325.1 kV=0.12 Vminpu=0.8 Vmaxpu=1.2 model=1 kW=2.5047232020051142 kvar=0.6800922265265169 Phases=1 yearly=res_kw_162_pu

New Load.load_p1ulv5325_2 conn=wye bus1=p1ulv5325.2 kV=0.12 Vminpu=0.8 Vmaxpu=1.2 model=1 kW=2.5047232020051142 kvar=0.6800922265265169 Phases=1 yearly=res_kw_162_pu

New Load.load_p1ulv5334_1 conn=wye bus1=p1ulv5334.1 kV=0.12 Vminpu=0.8 Vmaxpu=1.2 model=1 kW=5.436729579526792 kvar=1.2488470964899614 Phases=1 yearly=res_kw_454_pu

New Load.load_p1ulv5334_2 conn=wye bus1=p1ulv5334.2 kV=0.12 Vminpu=0.8 Vmaxpu=1.2 model=1 kW=5.436729579526792 kvar=1.2488470964899614 Phases=1 yearly=res_kw_454_pu

New Load.load_p1ulv5339_1 conn=wye bus1=p1ulv5339.1 kV=0.12 Vminpu=0.8 Vmaxpu=1.2 model=1 kW=6.139488924452324 kvar=1.0282575631325632 Phases=1 yearly=res_kw_421_pu

New Load.load_p1ulv5339_2 conn=wye bus1=p1ulv5339.2 kV=0.12 Vminpu=0.8 Vmaxpu=1.2 model=1 kW=6.139488924452324 kvar=1.0282575631325632 Phases=1 yearly=res_kw_421_pu

New Load.load_p1ulv5340_1 conn=wye bus1=p1ulv5340.1 kV=0.12 Vminpu=0.8 Vmaxpu=1.2 model=1 kW=2.9898249364160714 kvar=0.2983164502279761 Phases=1 yearly=res_kw_1070_pu

New Load.load_p1ulv5340_2 conn=wye bus1=p1ulv5340.2 kV=0.12 Vminpu=0.8 Vmaxpu=1.2 model=1 kW=2.9898249364160714 kvar=0.2983164502279761 Phases=1 yearly=res_kw_1070_pu

New Load.load_p1ulv5341_1 conn=wye bus1=p1ulv5341.1 kV=0.12 Vminpu=0.8 Vmaxpu=1.2 model=1 kW=2.916803644387601 kvar=0.11499518252231355 Phases=1 yearly=res_kw_1094_pu

New Load.load_p1ulv5341_2 conn=wye bus1=p1ulv5341.2 kV=0.12 Vminpu=0.8 Vmaxpu=1.2 model=1 kW=2.916803644387601 kvar=0.11499518252231355 Phases=1 yearly=res_kw_1094_pu

New Load.load_p1ulv5342_1 conn=wye bus1=p1ulv5342.1 kV=0.12 Vminpu=0.8 Vmaxpu=1.2 model=1 kW=5.436729579526792 kvar=1.2488470964899614 Phases=1 yearly=res_kw_454_pu

New Load.load_p1ulv5342_2 conn=wye bus1=p1ulv5342.2 kV=0.12 Vminpu=0.8 Vmaxpu=1.2 model=1 kW=5.436729579526792 kvar=1.2488470964899614 Phases=1 yearly=res_kw_454_pu

New Load.load_p1ulv5343_1 conn=wye bus1=p1ulv5343.1 kV=0.12 Vminpu=0.8 Vmaxpu=1.2 model=1 kW=8.1643981028744 kvar=1.644547786200018 Phases=1 yearly=res_kw_188_pu

New Load.load_p1ulv5343_2 conn=wye bus1=p1ulv5343.2 kV=0.12 Vminpu=0.8 Vmaxpu=1.2 model=1 kW=8.1643981028744 kvar=1.644547786200018 Phases=1 yearly=res_kw_188_pu

New Load.load_p1ulv5344_1 conn=wye bus1=p1ulv5344.1 kV=0.12 Vminpu=0.8 Vmaxpu=1.2 model=1 kW=2.5047232020051142 kvar=0.6800922265265169 Phases=1 yearly=res_kw_162_pu

New Load.load_p1ulv5344_2 conn=wye bus1=p1ulv5344.2 kV=0.12 Vminpu=0.8 Vmaxpu=1.2 model=1 kW=2.5047232020051142 kvar=0.6800922265265169 Phases=1 yearly=res_kw_162_pu

New Load.load_p1ulv5345_1 conn=wye bus1=p1ulv5345.1 kV=0.12 Vminpu=0.8 Vmaxpu=1.2 model=1 kW=5.723135606665604 kvar=1.5038194991101048 Phases=1 yearly=res_kw_1228_pu

New Load.load_p1ulv5345_2 conn=wye bus1=p1ulv5345.2 kV=0.12 Vminpu=0.8 Vmaxpu=1.2 model=1 kW=5.723135606665604 kvar=1.5038194991101048 Phases=1 yearly=res_kw_1228_pu

New Load.load_p1ulv5346_1 conn=wye bus1=p1ulv5346.1 kV=0.12 Vminpu=0.8 Vmaxpu=1.2 model=1 kW=8.306306585300508 kvar=2.323837178317677 Phases=1 yearly=res_kw_170_pu

New Load.load_p1ulv5346_2 conn=wye bus1=p1ulv5346.2 kV=0.12 Vminpu=0.8 Vmaxpu=1.2 model=1 kW=8.306306585300508 kvar=2.323837178317677 Phases=1 yearly=res_kw_170_pu

New Load.load_p1ulv5347_1 conn=wye bus1=p1ulv5347.1 kV=0.12 Vminpu=0.8 Vmaxpu=1.2 model=1 kW=3.9060227283575606 kvar=0.8578020352767629 Phases=1 yearly=res_kw_278_pu

New Load.load_p1ulv5347_2 conn=wye bus1=p1ulv5347.2 kV=0.12 Vminpu=0.8 Vmaxpu=1.2 model=1 kW=3.9060227283575606 kvar=0.8578020352767629 Phases=1 yearly=res_kw_278_pu

New Load.load_p1ulv5348_1 conn=wye bus1=p1ulv5348.1 kV=0.12 Vminpu=0.8 Vmaxpu=1.2 model=1 kW=4.78815623948431 kvar=1.2110296754961107 Phases=1 yearly=res_kw_842_pu

New Load.load_p1ulv5348_2 conn=wye bus1=p1ulv5348.2 kV=0.12 Vminpu=0.8 Vmaxpu=1.2 model=1 kW=4.78815623948431 kvar=1.2110296754961107 Phases=1 yearly=res_kw_842_pu

New Load.load_p1ulv5349_1 conn=wye bus1=p1ulv5349.1 kV=0.12 Vminpu=0.8 Vmaxpu=1.2 model=1 kW=3.629714039262861 kvar=1.2034402112399032 Phases=1 yearly=res_kw_203_pu

New Load.load_p1ulv5349_2 conn=wye bus1=p1ulv5349.2 kV=0.12 Vminpu=0.8 Vmaxpu=1.2 model=1 kW=3.629714039262861 kvar=1.2034402112399032 Phases=1 yearly=res_kw_203_pu

New Load.load_p1ulv5350_1 conn=wye bus1=p1ulv5350.1 kV=0.12 Vminpu=0.8 Vmaxpu=1.2 model=1 kW=8.020736002000627 kvar=0.8077597125403054 Phases=1 yearly=res_kw_411_pu

New Load.load_p1ulv5350_2 conn=wye bus1=p1ulv5350.2 kV=0.12 Vminpu=0.8 Vmaxpu=1.2 model=1 kW=8.020736002000627 kvar=0.8077597125403054 Phases=1 yearly=res_kw_411_pu

New Load.load_p1ulv5351_1 conn=wye bus1=p1ulv5351.1 kV=0.12 Vminpu=0.8 Vmaxpu=1.2 model=1 kW=3.6844020253442458 kvar=1.4451491397155931 Phases=1 yearly=res_kw_1258_pu

New Load.load_p1ulv5351_2 conn=wye bus1=p1ulv5351.2 kV=0.12 Vminpu=0.8 Vmaxpu=1.2 model=1 kW=3.6844020253442458 kvar=1.4451491397155931 Phases=1 yearly=res_kw_1258_pu

New Load.load_p1ulv5353_1 conn=wye bus1=p1ulv5353.1 kV=0.12 Vminpu=0.8 Vmaxpu=1.2 model=1 kW=10.353404590937268 kvar=0.42120479731284227 Phases=1 yearly=res_kw_608_pu

New Load.load_p1ulv5353_2 conn=wye bus1=p1ulv5353.2 kV=0.12 Vminpu=0.8 Vmaxpu=1.2 model=1 kW=10.353404590937268 kvar=0.42120479731284227 Phases=1 yearly=res_kw_608_pu

New Load.load_p1ulv5354_1 conn=wye bus1=p1ulv5354.1 kV=0.12 Vminpu=0.8 Vmaxpu=1.2 model=1 kW=4.516489097443892 kvar=0.9687672615572862 Phases=1 yearly=res_kw_240_pu

New Load.load_p1ulv5354_2 conn=wye bus1=p1ulv5354.2 kV=0.12 Vminpu=0.8 Vmaxpu=1.2 model=1 kW=4.516489097443892 kvar=0.9687672615572862 Phases=1 yearly=res_kw_240_pu

New Load.load_p1ulv5355_1 conn=wye bus1=p1ulv5355.1 kV=0.12 Vminpu=0.8 Vmaxpu=1.2 model=1 kW=5.436729579526792 kvar=1.2488470964899614 Phases=1 yearly=res_kw_454_pu

New Load.load_p1ulv5355_2 conn=wye bus1=p1ulv5355.2 kV=0.12 Vminpu=0.8 Vmaxpu=1.2 model=1 kW=5.436729579526792 kvar=1.2488470964899614 Phases=1 yearly=res_kw_454_pu

New Load.load_p1ulv5356_1 conn=wye bus1=p1ulv5356.1 kV=0.12 Vminpu=0.8 Vmaxpu=1.2 model=1 kW=2.40000228705824 kvar=1.0173787262529668 Phases=1 yearly=res_kw_1205_pu

New Load.load_p1ulv5356_2 conn=wye bus1=p1ulv5356.2 kV=0.12 Vminpu=0.8 Vmaxpu=1.2 model=1 kW=2.40000228705824 kvar=1.0173787262529668 Phases=1 yearly=res_kw_1205_pu

New Load.load_p1ulv5357_1 conn=wye bus1=p1ulv5357.1 kV=0.12 Vminpu=0.8 Vmaxpu=1.2 model=1 kW=3.8748715750127736 kvar=1.5614372175332516 Phases=1 yearly=res_kw_517_pu

New Load.load_p1ulv5357_2 conn=wye bus1=p1ulv5357.2 kV=0.12 Vminpu=0.8 Vmaxpu=1.2 model=1 kW=3.8748715750127736 kvar=1.5614372175332516 Phases=1 yearly=res_kw_517_pu

New Load.load_p1ulv5358_1 conn=wye bus1=p1ulv5358.1 kV=0.12 Vminpu=0.8 Vmaxpu=1.2 model=1 kW=2.40000228705824 kvar=1.0173787262529668 Phases=1 yearly=res_kw_1205_pu

New Load.load_p1ulv5358_2 conn=wye bus1=p1ulv5358.2 kV=0.12 Vminpu=0.8 Vmaxpu=1.2 model=1 kW=2.40000228705824 kvar=1.0173787262529668 Phases=1 yearly=res_kw_1205_pu

New Load.load_p1ulv5359_1 conn=wye bus1=p1ulv5359.1 kV=0.12 Vminpu=0.8 Vmaxpu=1.2 model=1 kW=7.088530083600876 kvar=2.6134476319600712 Phases=1 yearly=res_kw_267_pu

New Load.load_p1ulv5359_2 conn=wye bus1=p1ulv5359.2 kV=0.12 Vminpu=0.8 Vmaxpu=1.2 model=1 kW=7.088530083600876 kvar=2.6134476319600712 Phases=1 yearly=res_kw_267_pu

New Load.load_p1ulv5360_1 conn=wye bus1=p1ulv5360.1 kV=0.12 Vminpu=0.8 Vmaxpu=1.2 model=1 kW=4.198936522204728 kvar=0.9501139000968819 Phases=1 yearly=res_kw_229_pu

New Load.load_p1ulv5360_2 conn=wye bus1=p1ulv5360.2 kV=0.12 Vminpu=0.8 Vmaxpu=1.2 model=1 kW=4.198936522204728 kvar=0.9501139000968819 Phases=1 yearly=res_kw_229_pu

New Load.load_p1ulv5362_1 conn=wye bus1=p1ulv5362.1 kV=0.12 Vminpu=0.8 Vmaxpu=1.2 model=1 kW=11.457721527492426 kvar=1.3801854390555242 Phases=1 yearly=res_kw_861_pu

New Load.load_p1ulv5362_2 conn=wye bus1=p1ulv5362.2 kV=0.12 Vminpu=0.8 Vmaxpu=1.2 model=1 kW=11.457721527492426 kvar=1.3801854390555242 Phases=1 yearly=res_kw_861_pu

New Load.load_p1ulv5363_1 conn=wye bus1=p1ulv5363.1 kV=0.12 Vminpu=0.8 Vmaxpu=1.2 model=1 kW=3.8748715750127736 kvar=1.5614372175332516 Phases=1 yearly=res_kw_517_pu

New Load.load_p1ulv5363_2 conn=wye bus1=p1ulv5363.2 kV=0.12 Vminpu=0.8 Vmaxpu=1.2 model=1 kW=3.8748715750127736 kvar=1.5614372175332516 Phases=1 yearly=res_kw_517_pu

New Load.load_p1ulv5364_1 conn=wye bus1=p1ulv5364.1 kV=0.12 Vminpu=0.8 Vmaxpu=1.2 model=1 kW=5.927737313300522 kvar=2.018482424064332 Phases=1 yearly=res_kw_38_pu

New Load.load_p1ulv5364_2 conn=wye bus1=p1ulv5364.2 kV=0.12 Vminpu=0.8 Vmaxpu=1.2 model=1 kW=5.927737313300522 kvar=2.018482424064332 Phases=1 yearly=res_kw_38_pu

New Load.load_p1ulv5365_1 conn=wye bus1=p1ulv5365.1 kV=0.12 Vminpu=0.8 Vmaxpu=1.2 model=1 kW=5.630366406134325 kvar=1.4654988363403099 Phases=1 yearly=res_kw_251_pu

New Load.load_p1ulv5365_2 conn=wye bus1=p1ulv5365.2 kV=0.12 Vminpu=0.8 Vmaxpu=1.2 model=1 kW=5.630366406134325 kvar=1.4654988363403099 Phases=1 yearly=res_kw_251_pu

New Load.load_p1ulv5366_1 conn=wye bus1=p1ulv5366.1 kV=0.12 Vminpu=0.8 Vmaxpu=1.2 model=1 kW=10.375628907780863 kvar=4.616486224330442 Phases=1 yearly=res_kw_1267_pu

New Load.load_p1ulv5366_2 conn=wye bus1=p1ulv5366.2 kV=0.12 Vminpu=0.8 Vmaxpu=1.2 model=1 kW=10.375628907780863 kvar=4.616486224330442 Phases=1 yearly=res_kw_1267_pu

New Load.load_p1ulv5367_1 conn=wye bus1=p1ulv5367.1 kV=0.12 Vminpu=0.8 Vmaxpu=1.2 model=1 kW=5.593814709601456 kvar=0.9267363329025571 Phases=1 yearly=res_kw_561_pu

New Load.load_p1ulv5367_2 conn=wye bus1=p1ulv5367.2 kV=0.12 Vminpu=0.8 Vmaxpu=1.2 model=1 kW=5.593814709601456 kvar=0.9267363329025571 Phases=1 yearly=res_kw_561_pu

New Load.load_p1ulv5368_1 conn=wye bus1=p1ulv5368.1 kV=0.12 Vminpu=0.8 Vmaxpu=1.2 model=1 kW=3.7845214109638885 kvar=0.7491783232179929 Phases=1 yearly=res_kw_464_pu

New Load.load_p1ulv5368_2 conn=wye bus1=p1ulv5368.2 kV=0.12 Vminpu=0.8 Vmaxpu=1.2 model=1 kW=3.7845214109638885 kvar=0.7491783232179929 Phases=1 yearly=res_kw_464_pu

New Load.load_p1ulv5369_1 conn=wye bus1=p1ulv5369.1 kV=0.12 Vminpu=0.8 Vmaxpu=1.2 model=1 kW=11.519913645766726 kvar=1.865620446374389 Phases=1 yearly=res_kw_754_pu

New Load.load_p1ulv5369_2 conn=wye bus1=p1ulv5369.2 kV=0.12 Vminpu=0.8 Vmaxpu=1.2 model=1 kW=11.519913645766726 kvar=1.865620446374389 Phases=1 yearly=res_kw_754_pu

New Load.load_p1ulv5370_1 conn=wye bus1=p1ulv5370.1 kV=0.12 Vminpu=0.8 Vmaxpu=1.2 model=1 kW=9.666699253995569 kvar=2.090221480167897 Phases=1 yearly=res_kw_46_pu

New Load.load_p1ulv5370_2 conn=wye bus1=p1ulv5370.2 kV=0.12 Vminpu=0.8 Vmaxpu=1.2 model=1 kW=9.666699253995569 kvar=2.090221480167897 Phases=1 yearly=res_kw_46_pu

New Load.load_p1ulv5371_1 conn=wye bus1=p1ulv5371.1 kV=0.12 Vminpu=0.8 Vmaxpu=1.2 model=1 kW=5.436729579526792 kvar=1.2488470964899614 Phases=1 yearly=res_kw_454_pu

New Load.load_p1ulv5371_2 conn=wye bus1=p1ulv5371.2 kV=0.12 Vminpu=0.8 Vmaxpu=1.2 model=1 kW=5.436729579526792 kvar=1.2488470964899614 Phases=1 yearly=res_kw_454_pu

New Load.load_p1ulv5372_1 conn=wye bus1=p1ulv5372.1 kV=0.12 Vminpu=0.8 Vmaxpu=1.2 model=1 kW=2.916803644387601 kvar=0.11499518252231355 Phases=1 yearly=res_kw_1094_pu

New Load.load_p1ulv5372_2 conn=wye bus1=p1ulv5372.2 kV=0.12 Vminpu=0.8 Vmaxpu=1.2 model=1 kW=2.916803644387601 kvar=0.11499518252231355 Phases=1 yearly=res_kw_1094_pu

New Load.load_p1ulv5373_1 conn=wye bus1=p1ulv5373.1 kV=0.12 Vminpu=0.8 Vmaxpu=1.2 model=1 kW=4.792485504367488 kvar=0.7718250753089506 Phases=1 yearly=res_kw_85_pu

New Load.load_p1ulv5373_2 conn=wye bus1=p1ulv5373.2 kV=0.12 Vminpu=0.8 Vmaxpu=1.2 model=1 kW=4.792485504367488 kvar=0.7718250753089506 Phases=1 yearly=res_kw_85_pu

New Load.load_p1ulv5374_1 conn=wye bus1=p1ulv5374.1 kV=0.12 Vminpu=0.8 Vmaxpu=1.2 model=1 kW=7.721615461137303 kvar=1.7536039230317741 Phases=1 yearly=res_kw_1013_pu

New Load.load_p1ulv5374_2 conn=wye bus1=p1ulv5374.2 kV=0.12 Vminpu=0.8 Vmaxpu=1.2 model=1 kW=7.721615461137303 kvar=1.7536039230317741 Phases=1 yearly=res_kw_1013_pu

New Load.load_p1ulv5375_1 conn=wye bus1=p1ulv5375.1 kV=0.12 Vminpu=0.8 Vmaxpu=1.2 model=1 kW=5.6593015111322105 kvar=1.2761251920573724 Phases=1 yearly=res_kw_324_pu

New Load.load_p1ulv5375_2 conn=wye bus1=p1ulv5375.2 kV=0.12 Vminpu=0.8 Vmaxpu=1.2 model=1 kW=5.6593015111322105 kvar=1.2761251920573724 Phases=1 yearly=res_kw_324_pu
