New Load.load_p1ulv70 conn=wye bus1=p1ulv70.1.2.3 kV=0.48 Vminpu=0.8 Vmaxpu=1.2 model=1 kW=78.67319233171877 kvar=23.77668054609895 Phases=3 yearly=com_kw_13601_pu

New Load.load_p1ulv86 conn=wye bus1=p1ulv86.1.2.3 kV=0.48 Vminpu=0.8 Vmaxpu=1.2 model=1 kW=253.16222139998118 kvar=18.868683832325765 Phases=3 yearly=com_kw_13891_pu

New Load.load_p1ulv3324_1 conn=wye bus1=p1ulv3324.1 kV=0.12 Vminpu=0.8 Vmaxpu=1.2 model=1 kW=4.47171304939181 kvar=1.1676103385976955 Phases=1 yearly=res_kw_627_pu

New Load.load_p1ulv3324_2 conn=wye bus1=p1ulv3324.2 kV=0.12 Vminpu=0.8 Vmaxpu=1.2 model=1 kW=4.47171304939181 kvar=1.1676103385976955 Phases=1 yearly=res_kw_627_pu

New Load.load_p1ulv3327_1 conn=wye bus1=p1ulv3327.1 kV=0.12 Vminpu=0.8 Vmaxpu=1.2 model=1 kW=3.469755020859998 kvar=0.8941520384931253 Phases=1 yearly=res_kw_4_pu

New Load.load_p1ulv3327_2 conn=wye bus1=p1ulv3327.2 kV=0.12 Vminpu=0.8 Vmaxpu=1.2 model=1 kW=3.469755020859998 kvar=0.8941520384931253 Phases=1 yearly=res_kw_4_pu

New Load.load_p1ulv3329_1 conn=wye bus1=p1ulv3329.1 kV=0.12 Vminpu=0.8 Vmaxpu=1.2 model=1 kW=5.436729579526792 kvar=1.2488470964899614 Phases=1 yearly=res_kw_454_pu

New Load.load_p1ulv3329_2 conn=wye bus1=p1ulv3329.2 kV=0.12 Vminpu=0.8 Vmaxpu=1.2 model=1 kW=5.436729579526792 kvar=1.2488470964899614 Phases=1 yearly=res_kw_454_pu

New Load.load_p1ulv3330_1 conn=wye bus1=p1ulv3330.1 kV=0.12 Vminpu=0.8 Vmaxpu=1.2 model=1 kW=5.593814709601456 kvar=0.9267363329025571 Phases=1 yearly=res_kw_561_pu

New Load.load_p1ulv3330_2 conn=wye bus1=p1ulv3330.2 kV=0.12 Vminpu=0.8 Vmaxpu=1.2 model=1 kW=5.593814709601456 kvar=0.9267363329025571 Phases=1 yearly=res_kw_561_pu

New Load.load_p1ulv3331_1 conn=wye bus1=p1ulv3331.1 kV=0.12 Vminpu=0.8 Vmaxpu=1.2 model=1 kW=11.519913645766726 kvar=1.865620446374389 Phases=1 yearly=res_kw_754_pu

New Load.load_p1ulv3331_2 conn=wye bus1=p1ulv3331.2 kV=0.12 Vminpu=0.8 Vmaxpu=1.2 model=1 kW=11.519913645766726 kvar=1.865620446374389 Phases=1 yearly=res_kw_754_pu

New Load.load_p1ulv3332 conn=wye bus1=p1ulv3332.1.2.3 kV=0.48 Vminpu=0.8 Vmaxpu=1.2 model=1 kW=46.72852941377792 kvar=10.287585336378356 Phases=3 yearly=com_kw_13551_pu

New Load.load_p1ulv3333 conn=wye bus1=p1ulv3333.1.2.3 kV=0.48 Vminpu=0.8 Vmaxpu=1.2 model=1 kW=28.228736290890346 kvar=2.6605691093676285 Phases=3 yearly=com_kw_12921_pu

New Load.load_p1ulv3336_1 conn=wye bus1=p1ulv3336.1 kV=0.12 Vminpu=0.8 Vmaxpu=1.2 model=1 kW=19.266451356753247 kvar=3.031659959832452 Phases=1 yearly=res_kw_988_pu

New Load.load_p1ulv3336_2 conn=wye bus1=p1ulv3336.2 kV=0.12 Vminpu=0.8 Vmaxpu=1.2 model=1 kW=19.266451356753247 kvar=3.031659959832452 Phases=1 yearly=res_kw_988_pu

New Load.load_p1ulv3337_1 conn=wye bus1=p1ulv3337.1 kV=0.12 Vminpu=0.8 Vmaxpu=1.2 model=1 kW=3.8748715750127736 kvar=1.5614372175332516 Phases=1 yearly=res_kw_517_pu

New Load.load_p1ulv3337_2 conn=wye bus1=p1ulv3337.2 kV=0.12 Vminpu=0.8 Vmaxpu=1.2 model=1 kW=3.8748715750127736 kvar=1.5614372175332516 Phases=1 yearly=res_kw_517_pu

New Load.load_p1ulv3338_1 conn=wye bus1=p1ulv3338.1 kV=0.12 Vminpu=0.8 Vmaxpu=1.2 model=1 kW=7.259772519581312 kvar=1.3210086815250959 Phases=1 yearly=res_kw_128_pu

New Load.load_p1ulv3338_2 conn=wye bus1=p1ulv3338.2 kV=0.12 Vminpu=0.8 Vmaxpu=1.2 model=1 kW=7.259772519581312 kvar=1.3210086815250959 Phases=1 yearly=res_kw_128_pu

New Load.load_p1ulv3339_1 conn=wye bus1=p1ulv3339.1 kV=0.12 Vminpu=0.8 Vmaxpu=1.2 model=1 kW=4.658663502989286 kvar=1.3388389434895354 Phases=1 yearly=res_kw_182_pu

New Load.load_p1ulv3339_2 conn=wye bus1=p1ulv3339.2 kV=0.12 Vminpu=0.8 Vmaxpu=1.2 model=1 kW=4.658663502989286 kvar=1.3388389434895354 Phases=1 yearly=res_kw_182_pu

New Load.load_p1ulv3340_1 conn=wye bus1=p1ulv3340.1 kV=0.12 Vminpu=0.8 Vmaxpu=1.2 model=1 kW=11.457721527492426 kvar=1.3801854390555242 Phases=1 yearly=res_kw_861_pu

New Load.load_p1ulv3340_2 conn=wye bus1=p1ulv3340.2 kV=0.12 Vminpu=0.8 Vmaxpu=1.2 model=1 kW=11.457721527492426 kvar=1.3801854390555242 Phases=1 yearly=res_kw_861_pu

New Load.load_p1ulv3341_1 conn=wye bus1=p1ulv3341.1 kV=0.12 Vminpu=0.8 Vmaxpu=1.2 model=1 kW=7.7578735794910925 kvar=1.9049941012910125 Phases=1 yearly=res_kw_863_pu

New Load.load_p1ulv3341_2 conn=wye bus1=p1ulv3341.2 kV=0.12 Vminpu=0.8 Vmaxpu=1.2 model=1 kW=7.7578735794910925 kvar=1.9049941012910125 Phases=1 yearly=res_kw_863_pu

New Load.load_p1ulv3342_1 conn=wye bus1=p1ulv3342.1 kV=0.12 Vminpu=0.8 Vmaxpu=1.2 model=1 kW=3.4468581914223817 kvar=1.1411197390818253 Phases=1 yearly=res_kw_250_pu

New Load.load_p1ulv3342_2 conn=wye bus1=p1ulv3342.2 kV=0.12 Vminpu=0.8 Vmaxpu=1.2 model=1 kW=3.4468581914223817 kvar=1.1411197390818253 Phases=1 yearly=res_kw_250_pu

New Load.load_p1ulv3343_1 conn=wye bus1=p1ulv3343.1 kV=0.12 Vminpu=0.8 Vmaxpu=1.2 model=1 kW=5.9414229713995805 kvar=1.343207581329588 Phases=1 yearly=res_kw_595_pu

New Load.load_p1ulv3343_2 conn=wye bus1=p1ulv3343.2 kV=0.12 Vminpu=0.8 Vmaxpu=1.2 model=1 kW=5.9414229713995805 kvar=1.343207581329588 Phases=1 yearly=res_kw_595_pu

New Load.load_p1ulv3344_1 conn=wye bus1=p1ulv3344.1 kV=0.12 Vminpu=0.8 Vmaxpu=1.2 model=1 kW=4.792624300749482 kvar=1.1139407265067676 Phases=1 yearly=res_kw_898_pu

New Load.load_p1ulv3344_2 conn=wye bus1=p1ulv3344.2 kV=0.12 Vminpu=0.8 Vmaxpu=1.2 model=1 kW=4.792624300749482 kvar=1.1139407265067676 Phases=1 yearly=res_kw_898_pu

New Load.load_p1ulv3345_1 conn=wye bus1=p1ulv3345.1 kV=0.12 Vminpu=0.8 Vmaxpu=1.2 model=1 kW=3.629714039262861 kvar=1.2034402112399032 Phases=1 yearly=res_kw_203_pu

New Load.load_p1ulv3345_2 conn=wye bus1=p1ulv3345.2 kV=0.12 Vminpu=0.8 Vmaxpu=1.2 model=1 kW=3.629714039262861 kvar=1.2034402112399032 Phases=1 yearly=res_kw_203_pu

New Load.load_p1ulv3346_1 conn=wye bus1=p1ulv3346.1 kV=0.12 Vminpu=0.8 Vmaxpu=1.2 model=1 kW=5.286987923172412 kvar=0.912918656895422 Phases=1 yearly=res_kw_75_pu

New Load.load_p1ulv3346_2 conn=wye bus1=p1ulv3346.2 kV=0.12 Vminpu=0.8 Vmaxpu=1.2 model=1 kW=5.286987923172412 kvar=0.912918656895422 Phases=1 yearly=res_kw_75_pu

New Load.load_p1ulv3348_1 conn=wye bus1=p1ulv3348.1 kV=0.12 Vminpu=0.8 Vmaxpu=1.2 model=1 kW=6.2419949477893475 kvar=3.2518916743102033 Phases=1 yearly=res_kw_748_pu

New Load.load_p1ulv3348_2 conn=wye bus1=p1ulv3348.2 kV=0.12 Vminpu=0.8 Vmaxpu=1.2 model=1 kW=6.2419949477893475 kvar=3.2518916743102033 Phases=1 yearly=res_kw_748_pu

New Load.load_p1ulv3349_1 conn=wye bus1=p1ulv3349.1 kV=0.12 Vminpu=0.8 Vmaxpu=1.2 model=1 kW=7.7578735794910925 kvar=1.9049941012910125 Phases=1 yearly=res_kw_863_pu

New Load.load_p1ulv3349_2 conn=wye bus1=p1ulv3349.2 kV=0.12 Vminpu=0.8 Vmaxpu=1.2 model=1 kW=7.7578735794910925 kvar=1.9049941012910125 Phases=1 yearly=res_kw_863_pu

New Load.load_p1ulv3351_1 conn=wye bus1=p1ulv3351.1 kV=0.12 Vminpu=0.8 Vmaxpu=1.2 model=1 kW=5.286987923172412 kvar=0.912918656895422 Phases=1 yearly=res_kw_75_pu

New Load.load_p1ulv3351_2 conn=wye bus1=p1ulv3351.2 kV=0.12 Vminpu=0.8 Vmaxpu=1.2 model=1 kW=5.286987923172412 kvar=0.912918656895422 Phases=1 yearly=res_kw_75_pu

New Load.load_p1ulv3352_1 conn=wye bus1=p1ulv3352.1 kV=0.12 Vminpu=0.8 Vmaxpu=1.2 model=1 kW=7.721615461137303 kvar=1.7536039230317741 Phases=1 yearly=res_kw_1013_pu

New Load.load_p1ulv3352_2 conn=wye bus1=p1ulv3352.2 kV=0.12 Vminpu=0.8 Vmaxpu=1.2 model=1 kW=7.721615461137303 kvar=1.7536039230317741 Phases=1 yearly=res_kw_1013_pu

New Load.load_p1ulv3353_1 conn=wye bus1=p1ulv3353.1 kV=0.12 Vminpu=0.8 Vmaxpu=1.2 model=1 kW=8.306306585300508 kvar=2.323837178317677 Phases=1 yearly=res_kw_170_pu

New Load.load_p1ulv3353_2 conn=wye bus1=p1ulv3353.2 kV=0.12 Vminpu=0.8 Vmaxpu=1.2 model=1 kW=8.306306585300508 kvar=2.323837178317677 Phases=1 yearly=res_kw_170_pu

New Load.load_p1ulv3354_1 conn=wye bus1=p1ulv3354.1 kV=0.12 Vminpu=0.8 Vmaxpu=1.2 model=1 kW=3.6844020253442458 kvar=1.4451491397155931 Phases=1 yearly=res_kw_1258_pu

New Load.load_p1ulv3354_2 conn=wye bus1=p1ulv3354.2 kV=0.12 Vminpu=0.8 Vmaxpu=1.2 model=1 kW=3.6844020253442458 kvar=1.4451491397155931 Phases=1 yearly=res_kw_1258_pu

New Load.load_p1ulv3356_1 conn=wye bus1=p1ulv3356.1 kV=0.12 Vminpu=0.8 Vmaxpu=1.2 model=1 kW=6.493483572310169 kvar=1.8697715277591924 Phases=1 yearly=com_kw_14045_pu

New Load.load_p1ulv3356_2 conn=wye bus1=p1ulv3356.2 kV=0.12 Vminpu=0.8 Vmaxpu=1.2 model=1 kW=6.493483572310169 kvar=1.8697715277591924 Phases=1 yearly=com_kw_14045_pu

New Load.load_p1ulv3361_1 conn=wye bus1=p1ulv3361.1 kV=0.12 Vminpu=0.8 Vmaxpu=1.2 model=1 kW=5.9950384424467575 kvar=1.0154392293013743 Phases=1 yearly=res_kw_514_pu

New Load.load_p1ulv3361_2 conn=wye bus1=p1ulv3361.2 kV=0.12 Vminpu=0.8 Vmaxpu=1.2 model=1 kW=5.9950384424467575 kvar=1.0154392293013743 Phases=1 yearly=res_kw_514_pu

New Load.load_p1ulv3365_1 conn=wye bus1=p1ulv3365.1 kV=0.12 Vminpu=0.8 Vmaxpu=1.2 model=1 kW=5.436729579526792 kvar=1.2488470964899614 Phases=1 yearly=res_kw_454_pu

New Load.load_p1ulv3365_2 conn=wye bus1=p1ulv3365.2 kV=0.12 Vminpu=0.8 Vmaxpu=1.2 model=1 kW=5.436729579526792 kvar=1.2488470964899614 Phases=1 yearly=res_kw_454_pu

New Load.load_p1ulv3367_1 conn=wye bus1=p1ulv3367.1 kV=0.12 Vminpu=0.8 Vmaxpu=1.2 model=1 kW=5.630366406134325 kvar=1.4654988363403099 Phases=1 yearly=res_kw_251_pu

New Load.load_p1ulv3367_2 conn=wye bus1=p1ulv3367.2 kV=0.12 Vminpu=0.8 Vmaxpu=1.2 model=1 kW=5.630366406134325 kvar=1.4654988363403099 Phases=1 yearly=res_kw_251_pu

New Load.load_p1ulv3374_1 conn=wye bus1=p1ulv3374.1 kV=0.12 Vminpu=0.8 Vmaxpu=1.2 model=1 kW=4.1700386293672755 kvar=1.0653344090358647 Phases=1 yearly=com_kw_15086_pu

New Load.load_p1ulv3374_2 conn=wye bus1=p1ulv3374.2 kV=0.12 Vminpu=0.8 Vmaxpu=1.2 model=1 kW=4.1700386293672755 kvar=1.0653344090358647 Phases=1 yearly=com_kw_15086_pu

New Load.load_p1ulv3376_1 conn=wye bus1=p1ulv3376.1 kV=0.12 Vminpu=0.8 Vmaxpu=1.2 model=1 kW=6.139488924452324 kvar=1.0282575631325632 Phases=1 yearly=res_kw_421_pu

New Load.load_p1ulv3376_2 conn=wye bus1=p1ulv3376.2 kV=0.12 Vminpu=0.8 Vmaxpu=1.2 model=1 kW=6.139488924452324 kvar=1.0282575631325632 Phases=1 yearly=res_kw_421_pu

New Load.load_p1ulv3378_1 conn=wye bus1=p1ulv3378.1 kV=0.12 Vminpu=0.8 Vmaxpu=1.2 model=1 kW=4.78815623948431 kvar=1.2110296754961107 Phases=1 yearly=res_kw_842_pu

New Load.load_p1ulv3378_2 conn=wye bus1=p1ulv3378.2 kV=0.12 Vminpu=0.8 Vmaxpu=1.2 model=1 kW=4.78815623948431 kvar=1.2110296754961107 Phases=1 yearly=res_kw_842_pu

New Load.load_p1ulv13248 conn=wye bus1=p1ulv13248.1.2.3 kV=0.48 Vminpu=0.8 Vmaxpu=1.2 model=1 kW=65.78530333550452 kvar=17.40792219033875 Phases=3 yearly=com_kw_12786_pu

New Load.load_p1ulv16911_1 conn=wye bus1=p1ulv16911.1 kV=0.12 Vminpu=0.8 Vmaxpu=1.2 model=1 kW=9.484346446725981 kvar=0.4751538818991885 Phases=1 yearly=com_kw_14518_pu

New Load.load_p1ulv16911_2 conn=wye bus1=p1ulv16911.2 kV=0.12 Vminpu=0.8 Vmaxpu=1.2 model=1 kW=9.484346446725981 kvar=0.4751538818991885 Phases=1 yearly=com_kw_14518_pu

New Load.load_p1ulv19318_1 conn=wye bus1=p1ulv19318.1 kV=0.12 Vminpu=0.8 Vmaxpu=1.2 model=1 kW=5.777968789114468 kvar=0.5425823089827511 Phases=1 yearly=com_kw_15253_pu

New Load.load_p1ulv19318_2 conn=wye bus1=p1ulv19318.2 kV=0.12 Vminpu=0.8 Vmaxpu=1.2 model=1 kW=5.777968789114468 kvar=0.5425823089827511 Phases=1 yearly=com_kw_15253_pu

New Load.load_p1umv26 conn=wye bus1=p1umv26.1.2.3 kV=12.47 Vminpu=0.8 Vmaxpu=1.2 model=1 kW=3512.308384536273 kvar=1156.7334027738477 Phases=3 yearly=com_kw_13028_pu

New Load.load_p1ulv19319_1 conn=wye bus1=p1ulv19319.1 kV=0.12 Vminpu=0.8 Vmaxpu=1.2 model=1 kW=5.723135606665604 kvar=1.5038194991101048 Phases=1 yearly=res_kw_1228_pu

New Load.load_p1ulv19319_2 conn=wye bus1=p1ulv19319.2 kV=0.12 Vminpu=0.8 Vmaxpu=1.2 model=1 kW=5.723135606665604 kvar=1.5038194991101048 Phases=1 yearly=res_kw_1228_pu

New Load.load_p1ulv19321_1 conn=wye bus1=p1ulv19321.1 kV=0.12 Vminpu=0.8 Vmaxpu=1.2 model=1 kW=3.8748715750127736 kvar=1.5614372175332516 Phases=1 yearly=res_kw_517_pu

New Load.load_p1ulv19321_2 conn=wye bus1=p1ulv19321.2 kV=0.12 Vminpu=0.8 Vmaxpu=1.2 model=1 kW=3.8748715750127736 kvar=1.5614372175332516 Phases=1 yearly=res_kw_517_pu

New Load.load_p1ulv19323_1 conn=wye bus1=p1ulv19323.1 kV=0.12 Vminpu=0.8 Vmaxpu=1.2 model=1 kW=3.469521951913567 kvar=0.9490620687569232 Phases=1 yearly=res_kw_825_pu

New Load.load_p1ulv19323_2 conn=wye bus1=p1ulv19323.2 kV=0.12 Vminpu=0.8 Vmaxpu=1.2 model=1 kW=3.469521951913567 kvar=0.9490620687569232 Phases=1 yearly=res_kw_825_pu

New Load.load_p1ulv19324_1 conn=wye bus1=p1ulv19324.1 kV=0.12 Vminpu=0.8 Vmaxpu=1.2 model=1 kW=3.469755020859998 kvar=0.8941520384931253 Phases=1 yearly=res_kw_4_pu

New Load.load_p1ulv19324_2 conn=wye bus1=p1ulv19324.2 kV=0.12 Vminpu=0.8 Vmaxpu=1.2 model=1 kW=3.469755020859998 kvar=0.8941520384931253 Phases=1 yearly=res_kw_4_pu

New Load.load_p1ulv19326_1 conn=wye bus1=p1ulv19326.1 kV=0.12 Vminpu=0.8 Vmaxpu=1.2 model=1 kW=4.889402611994926 kvar=1.0559288347164948 Phases=1 yearly=res_kw_1160_pu

New Load.load_p1ulv19326_2 conn=wye bus1=p1ulv19326.2 kV=0.12 Vminpu=0.8 Vmaxpu=1.2 model=1 kW=4.889402611994926 kvar=1.0559288347164948 Phases=1 yearly=res_kw_1160_pu

New Load.load_p1ulv19327_1 conn=wye bus1=p1ulv19327.1 kV=0.12 Vminpu=0.8 Vmaxpu=1.2 model=1 kW=4.4719654544990375 kvar=1.0992469987144322 Phases=1 yearly=res_kw_1157_pu

New Load.load_p1ulv19327_2 conn=wye bus1=p1ulv19327.2 kV=0.12 Vminpu=0.8 Vmaxpu=1.2 model=1 kW=4.4719654544990375 kvar=1.0992469987144322 Phases=1 yearly=res_kw_1157_pu

New Load.load_p1ulv19328_1 conn=wye bus1=p1ulv19328.1 kV=0.12 Vminpu=0.8 Vmaxpu=1.2 model=1 kW=6.817994061838357 kvar=0.9100697715919355 Phases=1 yearly=res_kw_1099_pu

New Load.load_p1ulv19328_2 conn=wye bus1=p1ulv19328.2 kV=0.12 Vminpu=0.8 Vmaxpu=1.2 model=1 kW=6.817994061838357 kvar=0.9100697715919355 Phases=1 yearly=res_kw_1099_pu

New Load.load_p1ulv19329_1 conn=wye bus1=p1ulv19329.1 kV=0.12 Vminpu=0.8 Vmaxpu=1.2 model=1 kW=5.675346369339635 kvar=1.238985226090579 Phases=1 yearly=res_kw_1186_pu

New Load.load_p1ulv19329_2 conn=wye bus1=p1ulv19329.2 kV=0.12 Vminpu=0.8 Vmaxpu=1.2 model=1 kW=5.675346369339635 kvar=1.238985226090579 Phases=1 yearly=res_kw_1186_pu

New Load.load_p1ulv19330_1 conn=wye bus1=p1ulv19330.1 kV=0.12 Vminpu=0.8 Vmaxpu=1.2 model=1 kW=4.78815623948431 kvar=1.2110296754961107 Phases=1 yearly=res_kw_842_pu

New Load.load_p1ulv19330_2 conn=wye bus1=p1ulv19330.2 kV=0.12 Vminpu=0.8 Vmaxpu=1.2 model=1 kW=4.78815623948431 kvar=1.2110296754961107 Phases=1 yearly=res_kw_842_pu

New Load.load_p1ulv19331_1 conn=wye bus1=p1ulv19331.1 kV=0.12 Vminpu=0.8 Vmaxpu=1.2 model=1 kW=9.591249211904968 kvar=2.0347748075499026 Phases=1 yearly=res_kw_319_pu

New Load.load_p1ulv19331_2 conn=wye bus1=p1ulv19331.2 kV=0.12 Vminpu=0.8 Vmaxpu=1.2 model=1 kW=9.591249211904968 kvar=2.0347748075499026 Phases=1 yearly=res_kw_319_pu

New Load.load_p1ulv19332 conn=wye bus1=p1ulv19332.1.2.3 kV=0.48 Vminpu=0.8 Vmaxpu=1.2 model=1 kW=46.27909493643514 kvar=10.491999571793478 Phases=3 yearly=com_kw_14557_pu

New Load.load_p1ulv19333_1 conn=wye bus1=p1ulv19333.1 kV=0.12 Vminpu=0.8 Vmaxpu=1.2 model=1 kW=5.947053638705014 kvar=1.2332751328813323 Phases=1 yearly=res_kw_245_pu

New Load.load_p1ulv19333_2 conn=wye bus1=p1ulv19333.2 kV=0.12 Vminpu=0.8 Vmaxpu=1.2 model=1 kW=5.947053638705014 kvar=1.2332751328813323 Phases=1 yearly=res_kw_245_pu

New Load.load_p1ulv19334_1 conn=wye bus1=p1ulv19334.1 kV=0.12 Vminpu=0.8 Vmaxpu=1.2 model=1 kW=4.642179748908938 kvar=0.176462268654847 Phases=1 yearly=com_kw_15157_pu

New Load.load_p1ulv19334_2 conn=wye bus1=p1ulv19334.2 kV=0.12 Vminpu=0.8 Vmaxpu=1.2 model=1 kW=4.642179748908938 kvar=0.176462268654847 Phases=1 yearly=com_kw_15157_pu

New Load.load_p1ulv19335_1 conn=wye bus1=p1ulv19335.1 kV=0.12 Vminpu=0.8 Vmaxpu=1.2 model=1 kW=2.6241521841182514 kvar=0.8429304779950015 Phases=1 yearly=res_kw_33_pu

New Load.load_p1ulv19335_2 conn=wye bus1=p1ulv19335.2 kV=0.12 Vminpu=0.8 Vmaxpu=1.2 model=1 kW=2.6241521841182514 kvar=0.8429304779950015 Phases=1 yearly=res_kw_33_pu

New Load.load_p1ulv19336_1 conn=wye bus1=p1ulv19336.1 kV=0.12 Vminpu=0.8 Vmaxpu=1.2 model=1 kW=4.666080754031652 kvar=0.9704814918535188 Phases=1 yearly=res_kw_280_pu

New Load.load_p1ulv19336_2 conn=wye bus1=p1ulv19336.2 kV=0.12 Vminpu=0.8 Vmaxpu=1.2 model=1 kW=4.666080754031652 kvar=0.9704814918535188 Phases=1 yearly=res_kw_280_pu

New Load.load_p1ulv19346 conn=wye bus1=p1ulv19346.1.2.3 kV=0.48 Vminpu=0.8 Vmaxpu=1.2 model=1 kW=174.69285410291275 kvar=45.82197168104374 Phases=3 yearly=com_kw_15000_pu

New Load.load_p1ulv19347 conn=wye bus1=p1ulv19347.1.2.3 kV=0.48 Vminpu=0.8 Vmaxpu=1.2 model=1 kW=139.8917722207126 kvar=6.109246877535022 Phases=3 yearly=com_kw_14536_pu

New Load.load_p1ulv19349 conn=wye bus1=p1ulv19349.1.2.3 kV=0.48 Vminpu=0.8 Vmaxpu=1.2 model=1 kW=60.038627877777174 kvar=15.893801494172203 Phases=3 yearly=com_kw_14255_pu

New Load.load_p1ulv19351 conn=wye bus1=p1ulv19351.1.2.3 kV=0.48 Vminpu=0.8 Vmaxpu=1.2 model=1 kW=174.69285410291275 kvar=45.82197168104374 Phases=3 yearly=com_kw_15000_pu

New Load.load_p1umv27 conn=wye bus1=p1umv27.1.2.3 kV=12.47 Vminpu=0.8 Vmaxpu=1.2 model=1 kW=981.264216659659 kvar=324.9534732439912 Phases=3 yearly=com_kw_14099_pu

New Load.load_p1umv28 conn=wye bus1=p1umv28.1.2.3 kV=12.47 Vminpu=0.8 Vmaxpu=1.2 model=1 kW=981.264216659659 kvar=324.9534732439912 Phases=3 yearly=com_kw_14099_pu

New Load.load_p1umv29 conn=wye bus1=p1umv29.1.2.3 kV=12.47 Vminpu=0.8 Vmaxpu=1.2 model=1 kW=3512.308384536273 kvar=1156.7334027738477 Phases=3 yearly=com_kw_13028_pu

New Load.load_p1ulv21743 conn=wye bus1=p1ulv21743.1.2.3 kV=0.48 Vminpu=0.8 Vmaxpu=1.2 model=1 kW=174.69285410291275 kvar=45.82197168104374 Phases=3 yearly=com_kw_15000_pu

New Load.load_p1ulv21831 conn=wye bus1=p1ulv21831.1.2.3 kV=0.48 Vminpu=0.8 Vmaxpu=1.2 model=1 kW=70.38008862983457 kvar=19.281873212627612 Phases=3 yearly=com_kw_14472_pu

New Load.load_p1ulv24249_1 conn=wye bus1=p1ulv24249.1 kV=0.12 Vminpu=0.8 Vmaxpu=1.2 model=1 kW=3.460037762068802 kvar=0.6117019426679855 Phases=1 yearly=res_kw_205_pu

New Load.load_p1ulv24249_2 conn=wye bus1=p1ulv24249.2 kV=0.12 Vminpu=0.8 Vmaxpu=1.2 model=1 kW=3.460037762068802 kvar=0.6117019426679855 Phases=1 yearly=res_kw_205_pu

New Load.load_p1ulv24250_1 conn=wye bus1=p1ulv24250.1 kV=0.12 Vminpu=0.8 Vmaxpu=1.2 model=1 kW=2.605021030189827 kvar=1.0007509371876184 Phases=1 yearly=res_kw_24_pu

New Load.load_p1ulv24250_2 conn=wye bus1=p1ulv24250.2 kV=0.12 Vminpu=0.8 Vmaxpu=1.2 model=1 kW=2.605021030189827 kvar=1.0007509371876184 Phases=1 yearly=res_kw_24_pu

New Load.load_p1ulv24251_1 conn=wye bus1=p1ulv24251.1 kV=0.12 Vminpu=0.8 Vmaxpu=1.2 model=1 kW=2.605021030189827 kvar=1.0007509371876184 Phases=1 yearly=res_kw_24_pu

New Load.load_p1ulv24251_2 conn=wye bus1=p1ulv24251.2 kV=0.12 Vminpu=0.8 Vmaxpu=1.2 model=1 kW=2.605021030189827 kvar=1.0007509371876184 Phases=1 yearly=res_kw_24_pu

New Load.load_p1ulv24252_1 conn=wye bus1=p1ulv24252.1 kV=0.12 Vminpu=0.8 Vmaxpu=1.2 model=1 kW=3.3701610259235064 kvar=1.065454990641787 Phases=1 yearly=res_kw_1037_pu

New Load.load_p1ulv24252_2 conn=wye bus1=p1ulv24252.2 kV=0.12 Vminpu=0.8 Vmaxpu=1.2 model=1 kW=3.3701610259235064 kvar=1.065454990641787 Phases=1 yearly=res_kw_1037_pu

New Load.load_p1ulv24253_1 conn=wye bus1=p1ulv24253.1 kV=0.12 Vminpu=0.8 Vmaxpu=1.2 model=1 kW=2.6241521841182514 kvar=0.8429304779950015 Phases=1 yearly=res_kw_33_pu

New Load.load_p1ulv24253_2 conn=wye bus1=p1ulv24253.2 kV=0.12 Vminpu=0.8 Vmaxpu=1.2 model=1 kW=2.6241521841182514 kvar=0.8429304779950015 Phases=1 yearly=res_kw_33_pu

New Load.load_p1ulv24254_1 conn=wye bus1=p1ulv24254.1 kV=0.12 Vminpu=0.8 Vmaxpu=1.2 model=1 kW=7.195337616187572 kvar=1.3536865792954904 Phases=1 yearly=res_kw_462_pu

New Load.load_p1ulv24254_2 conn=wye bus1=p1ulv24254.2 kV=0.12 Vminpu=0.8 Vmaxpu=1.2 model=1 kW=7.195337616187572 kvar=1.3536865792954904 Phases=1 yearly=res_kw_462_pu

New Load.load_p1ulv24255_1 conn=wye bus1=p1ulv24255.1 kV=0.12 Vminpu=0.8 Vmaxpu=1.2 model=1 kW=5.675346369339635 kvar=1.238985226090579 Phases=1 yearly=res_kw_1186_pu

New Load.load_p1ulv24255_2 conn=wye bus1=p1ulv24255.2 kV=0.12 Vminpu=0.8 Vmaxpu=1.2 model=1 kW=5.675346369339635 kvar=1.238985226090579 Phases=1 yearly=res_kw_1186_pu

New Load.load_p1ulv24256_1 conn=wye bus1=p1ulv24256.1 kV=0.12 Vminpu=0.8 Vmaxpu=1.2 model=1 kW=5.675346369339635 kvar=1.238985226090579 Phases=1 yearly=res_kw_1186_pu

New Load.load_p1ulv24256_2 conn=wye bus1=p1ulv24256.2 kV=0.12 Vminpu=0.8 Vmaxpu=1.2 model=1 kW=5.675346369339635 kvar=1.238985226090579 Phases=1 yearly=res_kw_1186_pu

New Load.load_p1ulv24257_1 conn=wye bus1=p1ulv24257.1 kV=0.12 Vminpu=0.8 Vmaxpu=1.2 model=1 kW=3.3701610259235064 kvar=1.065454990641787 Phases=1 yearly=res_kw_1037_pu

New Load.load_p1ulv24257_2 conn=wye bus1=p1ulv24257.2 kV=0.12 Vminpu=0.8 Vmaxpu=1.2 model=1 kW=3.3701610259235064 kvar=1.065454990641787 Phases=1 yearly=res_kw_1037_pu

New Load.load_p1ulv24258_1 conn=wye bus1=p1ulv24258.1 kV=0.12 Vminpu=0.8 Vmaxpu=1.2 model=1 kW=2.605021030189827 kvar=1.0007509371876184 Phases=1 yearly=res_kw_24_pu

New Load.load_p1ulv24258_2 conn=wye bus1=p1ulv24258.2 kV=0.12 Vminpu=0.8 Vmaxpu=1.2 model=1 kW=2.605021030189827 kvar=1.0007509371876184 Phases=1 yearly=res_kw_24_pu

New Load.load_p1ulv24737_1 conn=wye bus1=p1ulv24737.1 kV=0.12 Vminpu=0.8 Vmaxpu=1.2 model=1 kW=11.371204475513052 kvar=0.5403756765242227 Phases=1 yearly=com_kw_14113_pu

New Load.load_p1ulv24737_2 conn=wye bus1=p1ulv24737.2 kV=0.12 Vminpu=0.8 Vmaxpu=1.2 model=1 kW=11.371204475513052 kvar=0.5403756765242227 Phases=1 yearly=com_kw_14113_pu

New Load.load_p1ulv26136 conn=wye bus1=p1ulv26136.1.2.3 kV=0.48 Vminpu=0.8 Vmaxpu=1.2 model=1 kW=174.69285410291275 kvar=45.82197168104374 Phases=3 yearly=com_kw_15000_pu

New Load.load_p1ulv26139_1 conn=wye bus1=p1ulv26139.1 kV=0.12 Vminpu=0.8 Vmaxpu=1.2 model=1 kW=3.8748715750127736 kvar=1.5614372175332516 Phases=1 yearly=res_kw_517_pu

New Load.load_p1ulv26139_2 conn=wye bus1=p1ulv26139.2 kV=0.12 Vminpu=0.8 Vmaxpu=1.2 model=1 kW=3.8748715750127736 kvar=1.5614372175332516 Phases=1 yearly=res_kw_517_pu

New Load.load_p1ulv26338 conn=wye bus1=p1ulv26338.1.2.3 kV=0.48 Vminpu=0.8 Vmaxpu=1.2 model=1 kW=220.9757494217886 kvar=59.61786656674792 Phases=3 yearly=com_kw_14490_pu

New Load.load_p1ulv26418_1 conn=wye bus1=p1ulv26418.1 kV=0.12 Vminpu=0.8 Vmaxpu=1.2 model=1 kW=9.591249211904968 kvar=2.0347748075499026 Phases=1 yearly=res_kw_319_pu

New Load.load_p1ulv26418_2 conn=wye bus1=p1ulv26418.2 kV=0.12 Vminpu=0.8 Vmaxpu=1.2 model=1 kW=9.591249211904968 kvar=2.0347748075499026 Phases=1 yearly=res_kw_319_pu

New Load.load_p1ulv26527_1 conn=wye bus1=p1ulv26527.1 kV=0.12 Vminpu=0.8 Vmaxpu=1.2 model=1 kW=1.1999161251108437 kvar=0.46029278685869546 Phases=1 yearly=res_kw_829_pu

New Load.load_p1ulv26527_2 conn=wye bus1=p1ulv26527.2 kV=0.12 Vminpu=0.8 Vmaxpu=1.2 model=1 kW=1.1999161251108437 kvar=0.46029278685869546 Phases=1 yearly=res_kw_829_pu

New Load.load_p1ulv26553_1 conn=wye bus1=p1ulv26553.1 kV=0.12 Vminpu=0.8 Vmaxpu=1.2 model=1 kW=5.5259285212797185 kvar=1.453865144609132 Phases=1 yearly=res_kw_216_pu

New Load.load_p1ulv26553_2 conn=wye bus1=p1ulv26553.2 kV=0.12 Vminpu=0.8 Vmaxpu=1.2 model=1 kW=5.5259285212797185 kvar=1.453865144609132 Phases=1 yearly=res_kw_216_pu

New Load.load_p1ulv26594_1 conn=wye bus1=p1ulv26594.1 kV=0.12 Vminpu=0.8 Vmaxpu=1.2 model=1 kW=3.3701610259235064 kvar=1.065454990641787 Phases=1 yearly=res_kw_1037_pu

New Load.load_p1ulv26594_2 conn=wye bus1=p1ulv26594.2 kV=0.12 Vminpu=0.8 Vmaxpu=1.2 model=1 kW=3.3701610259235064 kvar=1.065454990641787 Phases=1 yearly=res_kw_1037_pu

New Load.load_p1ulv26648_1 conn=wye bus1=p1ulv26648.1 kV=0.12 Vminpu=0.8 Vmaxpu=1.2 model=1 kW=7.801085072982733 kvar=0.6681136485043317 Phases=1 yearly=res_kw_1135_pu

New Load.load_p1ulv26648_2 conn=wye bus1=p1ulv26648.2 kV=0.12 Vminpu=0.8 Vmaxpu=1.2 model=1 kW=7.801085072982733 kvar=0.6681136485043317 Phases=1 yearly=res_kw_1135_pu

New Load.load_p1ulv26683_1 conn=wye bus1=p1ulv26683.1 kV=0.12 Vminpu=0.8 Vmaxpu=1.2 model=1 kW=8.1643981028744 kvar=1.644547786200018 Phases=1 yearly=res_kw_188_pu

New Load.load_p1ulv26683_2 conn=wye bus1=p1ulv26683.2 kV=0.12 Vminpu=0.8 Vmaxpu=1.2 model=1 kW=8.1643981028744 kvar=1.644547786200018 Phases=1 yearly=res_kw_188_pu

New Load.load_p1ulv26745_1 conn=wye bus1=p1ulv26745.1 kV=0.12 Vminpu=0.8 Vmaxpu=1.2 model=1 kW=2.40000228705824 kvar=1.0173787262529668 Phases=1 yearly=res_kw_1205_pu

New Load.load_p1ulv26745_2 conn=wye bus1=p1ulv26745.2 kV=0.12 Vminpu=0.8 Vmaxpu=1.2 model=1 kW=2.40000228705824 kvar=1.0173787262529668 Phases=1 yearly=res_kw_1205_pu

New Load.load_p1ulv26775_1 conn=wye bus1=p1ulv26775.1 kV=0.12 Vminpu=0.8 Vmaxpu=1.2 model=1 kW=1.3741353032147752 kvar=0.58237922359024 Phases=1 yearly=res_kw_1041_pu

New Load.load_p1ulv26775_2 conn=wye bus1=p1ulv26775.2 kV=0.12 Vminpu=0.8 Vmaxpu=1.2 model=1 kW=1.3741353032147752 kvar=0.58237922359024 Phases=1 yearly=res_kw_1041_pu

New Load.load_p1ulv26817_1 conn=wye bus1=p1ulv26817.1 kV=0.12 Vminpu=0.8 Vmaxpu=1.2 model=1 kW=5.927737313300522 kvar=2.018482424064332 Phases=1 yearly=res_kw_38_pu

New Load.load_p1ulv26817_2 conn=wye bus1=p1ulv26817.2 kV=0.12 Vminpu=0.8 Vmaxpu=1.2 model=1 kW=5.927737313300522 kvar=2.018482424064332 Phases=1 yearly=res_kw_38_pu

New Load.load_p1ulv26864 conn=wye bus1=p1ulv26864.1.2.3 kV=0.48 Vminpu=0.8 Vmaxpu=1.2 model=1 kW=57.79588291031922 kvar=16.217265328952486 Phases=3 yearly=com_kw_13065_pu

New Load.load_p1ulv26935_1 conn=wye bus1=p1ulv26935.1 kV=0.12 Vminpu=0.8 Vmaxpu=1.2 model=1 kW=4.788649591238137 kvar=1.023651375705972 Phases=1 yearly=res_kw_512_pu

New Load.load_p1ulv26935_2 conn=wye bus1=p1ulv26935.2 kV=0.12 Vminpu=0.8 Vmaxpu=1.2 model=1 kW=4.788649591238137 kvar=1.023651375705972 Phases=1 yearly=res_kw_512_pu

New Load.load_p1ulv26973_1 conn=wye bus1=p1ulv26973.1 kV=0.12 Vminpu=0.8 Vmaxpu=1.2 model=1 kW=7.088530083600876 kvar=2.6134476319600712 Phases=1 yearly=res_kw_267_pu

New Load.load_p1ulv26973_2 conn=wye bus1=p1ulv26973.2 kV=0.12 Vminpu=0.8 Vmaxpu=1.2 model=1 kW=7.088530083600876 kvar=2.6134476319600712 Phases=1 yearly=res_kw_267_pu

New Load.load_p1ulv27074 conn=wye bus1=p1ulv27074.1.2.3 kV=0.48 Vminpu=0.8 Vmaxpu=1.2 model=1 kW=44.29918903232506 kvar=11.286668375928098 Phases=3 yearly=com_kw_13114_pu

New Load.load_p1ulv27077_1 conn=wye bus1=p1ulv27077.1 kV=0.12 Vminpu=0.8 Vmaxpu=1.2 model=1 kW=3.6844020253442458 kvar=1.4451491397155931 Phases=1 yearly=res_kw_1258_pu

New Load.load_p1ulv27077_2 conn=wye bus1=p1ulv27077.2 kV=0.12 Vminpu=0.8 Vmaxpu=1.2 model=1 kW=3.6844020253442458 kvar=1.4451491397155931 Phases=1 yearly=res_kw_1258_pu

New Load.load_p1ulv27217 conn=wye bus1=p1ulv27217.1.2.3 kV=0.48 Vminpu=0.8 Vmaxpu=1.2 model=1 kW=20.34811553716727 kvar=4.467267472776305 Phases=3 yearly=com_kw_13526_pu

New Load.load_p1ulv27257 conn=wye bus1=p1ulv27257.1.2.3 kV=0.48 Vminpu=0.8 Vmaxpu=1.2 model=1 kW=285.7098581642185 kvar=32.00985970196068 Phases=3 yearly=com_kw_15105_pu

New Load.load_p1ulv27356 conn=wye bus1=p1ulv27356.1.2.3 kV=0.48 Vminpu=0.8 Vmaxpu=1.2 model=1 kW=51.32474016342029 kvar=2.957386361291338 Phases=3 yearly=com_kw_13274_pu

New Load.load_p1ulv27384_1 conn=wye bus1=p1ulv27384.1 kV=0.12 Vminpu=0.8 Vmaxpu=1.2 model=1 kW=8.01962100453296 kvar=1.9011506674959975 Phases=1 yearly=res_kw_380_pu

New Load.load_p1ulv27384_2 conn=wye bus1=p1ulv27384.2 kV=0.12 Vminpu=0.8 Vmaxpu=1.2 model=1 kW=8.01962100453296 kvar=1.9011506674959975 Phases=1 yearly=res_kw_380_pu

New Load.load_p1ulv27694_1 conn=wye bus1=p1ulv27694.1 kV=0.12 Vminpu=0.8 Vmaxpu=1.2 model=1 kW=3.789884331965197 kvar=1.0036576715582408 Phases=1 yearly=res_kw_670_pu

New Load.load_p1ulv27694_2 conn=wye bus1=p1ulv27694.2 kV=0.12 Vminpu=0.8 Vmaxpu=1.2 model=1 kW=3.789884331965197 kvar=1.0036576715582408 Phases=1 yearly=res_kw_670_pu

New Load.load_p1ulv27722 conn=wye bus1=p1ulv27722.1.2.3 kV=0.48 Vminpu=0.8 Vmaxpu=1.2 model=1 kW=253.16222139998118 kvar=18.868683832325765 Phases=3 yearly=com_kw_13891_pu

New Load.load_p1ulv27862_1 conn=wye bus1=p1ulv27862.1 kV=0.12 Vminpu=0.8 Vmaxpu=1.2 model=1 kW=13.251431311430247 kvar=0.1493407165487586 Phases=1 yearly=com_kw_14976_pu

New Load.load_p1ulv27862_2 conn=wye bus1=p1ulv27862.2 kV=0.12 Vminpu=0.8 Vmaxpu=1.2 model=1 kW=13.251431311430247 kvar=0.1493407165487586 Phases=1 yearly=com_kw_14976_pu

New Load.load_p1ulv27928 conn=wye bus1=p1ulv27928.1.2.3 kV=0.48 Vminpu=0.8 Vmaxpu=1.2 model=1 kW=220.9757494217886 kvar=59.61786656674792 Phases=3 yearly=com_kw_14490_pu

New Load.load_p1ulv27965_1 conn=wye bus1=p1ulv27965.1 kV=0.12 Vminpu=0.8 Vmaxpu=1.2 model=1 kW=7.816877794674849 kvar=0.3835386548196207 Phases=1 yearly=res_kw_763_pu

New Load.load_p1ulv27965_2 conn=wye bus1=p1ulv27965.2 kV=0.12 Vminpu=0.8 Vmaxpu=1.2 model=1 kW=7.816877794674849 kvar=0.3835386548196207 Phases=1 yearly=res_kw_763_pu

New Load.load_p1ulv28037 conn=wye bus1=p1ulv28037.1.2.3 kV=0.48 Vminpu=0.8 Vmaxpu=1.2 model=1 kW=23.96416074317735 kvar=5.7562975467501785 Phases=3 yearly=com_kw_13102_pu

New Load.load_p1ulv28112_1 conn=wye bus1=p1ulv28112.1 kV=0.12 Vminpu=0.8 Vmaxpu=1.2 model=1 kW=7.721615461137303 kvar=1.7536039230317741 Phases=1 yearly=res_kw_1013_pu

New Load.load_p1ulv28112_2 conn=wye bus1=p1ulv28112.2 kV=0.12 Vminpu=0.8 Vmaxpu=1.2 model=1 kW=7.721615461137303 kvar=1.7536039230317741 Phases=1 yearly=res_kw_1013_pu

New Load.load_p1ulv28147 conn=wye bus1=p1ulv28147.1.2.3 kV=0.48 Vminpu=0.8 Vmaxpu=1.2 model=1 kW=174.69285410291275 kvar=45.82197168104374 Phases=3 yearly=com_kw_15000_pu

New Load.load_p1ulv28183 conn=wye bus1=p1ulv28183.1.2.3 kV=0.48 Vminpu=0.8 Vmaxpu=1.2 model=1 kW=39.386431426010155 kvar=9.002515961767303 Phases=3 yearly=res_kw_617_pu

New Load.load_p1ulv28209_1 conn=wye bus1=p1ulv28209.1 kV=0.12 Vminpu=0.8 Vmaxpu=1.2 model=1 kW=3.789884331965197 kvar=1.0036576715582408 Phases=1 yearly=res_kw_670_pu

New Load.load_p1ulv28209_2 conn=wye bus1=p1ulv28209.2 kV=0.12 Vminpu=0.8 Vmaxpu=1.2 model=1 kW=3.789884331965197 kvar=1.0036576715582408 Phases=1 yearly=res_kw_670_pu
