New Load.load_p1ulv338_1 conn=wye bus1=p1ulv338.1 kV=0.12 Vminpu=0.8 Vmaxpu=1.2 model=1 kW=3.963001053413761 kvar=0.9410786890170905 Phases=1 yearly=res_kw_1256_pu

New Load.load_p1ulv338_2 conn=wye bus1=p1ulv338.2 kV=0.12 Vminpu=0.8 Vmaxpu=1.2 model=1 kW=3.963001053413761 kvar=0.9410786890170905 Phases=1 yearly=res_kw_1256_pu

New Load.load_p1ulv339_1 conn=wye bus1=p1ulv339.1 kV=0.12 Vminpu=0.8 Vmaxpu=1.2 model=1 kW=6.251204132654125 kvar=1.5952530188558731 Phases=1 yearly=res_kw_1248_pu

New Load.load_p1ulv339_2 conn=wye bus1=p1ulv339.2 kV=0.12 Vminpu=0.8 Vmaxpu=1.2 model=1 kW=6.251204132654125 kvar=1.5952530188558731 Phases=1 yearly=res_kw_1248_pu

New Load.load_p1ulv341_1 conn=wye bus1=p1ulv341.1 kV=0.12 Vminpu=0.8 Vmaxpu=1.2 model=1 kW=7.151603169892386 kvar=1.493762478537685 Phases=1 yearly=res_kw_30_pu

New Load.load_p1ulv341_2 conn=wye bus1=p1ulv341.2 kV=0.12 Vminpu=0.8 Vmaxpu=1.2 model=1 kW=7.151603169892386 kvar=1.493762478537685 Phases=1 yearly=res_kw_30_pu

New Load.load_p1ulv342_1 conn=wye bus1=p1ulv342.1 kV=0.12 Vminpu=0.8 Vmaxpu=1.2 model=1 kW=9.341738473663403 kvar=2.018548151169967 Phases=1 yearly=res_kw_504_pu

New Load.load_p1ulv342_2 conn=wye bus1=p1ulv342.2 kV=0.12 Vminpu=0.8 Vmaxpu=1.2 model=1 kW=9.341738473663403 kvar=2.018548151169967 Phases=1 yearly=res_kw_504_pu

New Load.load_p1ulv783_1 conn=wye bus1=p1ulv783.1 kV=0.12 Vminpu=0.8 Vmaxpu=1.2 model=1 kW=6.46954486905048 kvar=1.5165440515935265 Phases=1 yearly=res_kw_1067_pu

New Load.load_p1ulv783_2 conn=wye bus1=p1ulv783.2 kV=0.12 Vminpu=0.8 Vmaxpu=1.2 model=1 kW=6.46954486905048 kvar=1.5165440515935265 Phases=1 yearly=res_kw_1067_pu

New Load.load_p1ulv784_1 conn=wye bus1=p1ulv784.1 kV=0.12 Vminpu=0.8 Vmaxpu=1.2 model=1 kW=0.8155215330625105 kvar=0.30217793028689777 Phases=1 yearly=res_kw_1270_pu

New Load.load_p1ulv784_2 conn=wye bus1=p1ulv784.2 kV=0.12 Vminpu=0.8 Vmaxpu=1.2 model=1 kW=0.8155215330625105 kvar=0.30217793028689777 Phases=1 yearly=res_kw_1270_pu

New Load.load_p1ulv785_1 conn=wye bus1=p1ulv785.1 kV=0.12 Vminpu=0.8 Vmaxpu=1.2 model=1 kW=5.322536132590036 kvar=1.3343696797605602 Phases=1 yearly=com_kw_14395_pu

New Load.load_p1ulv785_2 conn=wye bus1=p1ulv785.2 kV=0.12 Vminpu=0.8 Vmaxpu=1.2 model=1 kW=5.322536132590036 kvar=1.3343696797605602 Phases=1 yearly=com_kw_14395_pu

New Load.load_p1ulv786_1 conn=wye bus1=p1ulv786.1 kV=0.12 Vminpu=0.8 Vmaxpu=1.2 model=1 kW=7.04256695844029 kvar=1.659740351203588 Phases=1 yearly=res_kw_707_pu

New Load.load_p1ulv786_2 conn=wye bus1=p1ulv786.2 kV=0.12 Vminpu=0.8 Vmaxpu=1.2 model=1 kW=7.04256695844029 kvar=1.659740351203588 Phases=1 yearly=res_kw_707_pu

New Load.load_p1ulv787_1 conn=wye bus1=p1ulv787.1 kV=0.12 Vminpu=0.8 Vmaxpu=1.2 model=1 kW=5.3682156961410055 kvar=1.0770711836919677 Phases=1 yearly=res_kw_1255_pu

New Load.load_p1ulv787_2 conn=wye bus1=p1ulv787.2 kV=0.12 Vminpu=0.8 Vmaxpu=1.2 model=1 kW=5.3682156961410055 kvar=1.0770711836919677 Phases=1 yearly=res_kw_1255_pu

New Load.load_p1ulv4889 conn=wye bus1=p1ulv4889.1.2.3 kV=0.48 Vminpu=0.8 Vmaxpu=1.2 model=1 kW=22.37300704356237 kvar=1.5751126418301655 Phases=3 yearly=res_kw_697_pu

New Load.load_p1ulv4896 conn=wye bus1=p1ulv4896.1.2.3 kV=0.48 Vminpu=0.8 Vmaxpu=1.2 model=1 kW=31.56390894948716 kvar=5.59016195527881 Phases=3 yearly=res_kw_76_pu

New Load.load_p1umv9 conn=wye bus1=p1umv9.1.2.3 kV=12.47 Vminpu=0.8 Vmaxpu=1.2 model=1 kW=2567.1643842471567 kvar=700.1372522288214 Phases=3 yearly=com_kw_15017_pu

New Load.load_p1ulv5068_1 conn=wye bus1=p1ulv5068.1 kV=0.12 Vminpu=0.8 Vmaxpu=1.2 model=1 kW=6.139488924452324 kvar=1.0282575631325632 Phases=1 yearly=res_kw_421_pu

New Load.load_p1ulv5068_2 conn=wye bus1=p1ulv5068.2 kV=0.12 Vminpu=0.8 Vmaxpu=1.2 model=1 kW=6.139488924452324 kvar=1.0282575631325632 Phases=1 yearly=res_kw_421_pu

New Load.load_p1ulv5071_1 conn=wye bus1=p1ulv5071.1 kV=0.12 Vminpu=0.8 Vmaxpu=1.2 model=1 kW=3.629714039262861 kvar=1.2034402112399032 Phases=1 yearly=res_kw_203_pu

New Load.load_p1ulv5071_2 conn=wye bus1=p1ulv5071.2 kV=0.12 Vminpu=0.8 Vmaxpu=1.2 model=1 kW=3.629714039262861 kvar=1.2034402112399032 Phases=1 yearly=res_kw_203_pu

New Load.load_p1ulv5076 conn=wye bus1=p1ulv5076.1.2.3 kV=0.48 Vminpu=0.8 Vmaxpu=1.2 model=1 kW=177.35593340914244 kvar=55.63579249289259 Phases=3 yearly=com_kw_12942_pu

New Load.load_p1ulv5081_1 conn=wye bus1=p1ulv5081.1 kV=0.12 Vminpu=0.8 Vmaxpu=1.2 model=1 kW=4.760442075087689 kvar=1.0766161551105315 Phases=1 yearly=res_kw_807_pu

New Load.load_p1ulv5081_2 conn=wye bus1=p1ulv5081.2 kV=0.12 Vminpu=0.8 Vmaxpu=1.2 model=1 kW=4.760442075087689 kvar=1.0766161551105315 Phases=1 yearly=res_kw_807_pu

New Load.load_p1ulv6566_1 conn=wye bus1=p1ulv6566.1 kV=0.12 Vminpu=0.8 Vmaxpu=1.2 model=1 kW=5.5259285212797185 kvar=1.453865144609132 Phases=1 yearly=res_kw_216_pu

New Load.load_p1ulv6566_2 conn=wye bus1=p1ulv6566.2 kV=0.12 Vminpu=0.8 Vmaxpu=1.2 model=1 kW=5.5259285212797185 kvar=1.453865144609132 Phases=1 yearly=res_kw_216_pu

New Load.load_p1ulv6567_1 conn=wye bus1=p1ulv6567.1 kV=0.12 Vminpu=0.8 Vmaxpu=1.2 model=1 kW=6.727252203449795 kvar=1.9067277455995406 Phases=1 yearly=res_kw_822_pu

New Load.load_p1ulv6567_2 conn=wye bus1=p1ulv6567.2 kV=0.12 Vminpu=0.8 Vmaxpu=1.2 model=1 kW=6.727252203449795 kvar=1.9067277455995406 Phases=1 yearly=res_kw_822_pu

New Load.load_p1ulv6568 conn=wye bus1=p1ulv6568.1.2.3 kV=0.48 Vminpu=0.8 Vmaxpu=1.2 model=1 kW=37.027150730515146 kvar=8.45406563355403 Phases=3 yearly=res_kw_558_pu

New Load.load_p1ulv6569_1 conn=wye bus1=p1ulv6569.1 kV=0.12 Vminpu=0.8 Vmaxpu=1.2 model=1 kW=3.6844020253442458 kvar=1.4451491397155931 Phases=1 yearly=res_kw_1258_pu

New Load.load_p1ulv6569_2 conn=wye bus1=p1ulv6569.2 kV=0.12 Vminpu=0.8 Vmaxpu=1.2 model=1 kW=3.6844020253442458 kvar=1.4451491397155931 Phases=1 yearly=res_kw_1258_pu

New Load.load_p1ulv6570_1 conn=wye bus1=p1ulv6570.1 kV=0.12 Vminpu=0.8 Vmaxpu=1.2 model=1 kW=11.506702661284509 kvar=3.22329926547824 Phases=1 yearly=res_kw_231_pu

New Load.load_p1ulv6570_2 conn=wye bus1=p1ulv6570.2 kV=0.12 Vminpu=0.8 Vmaxpu=1.2 model=1 kW=11.506702661284509 kvar=3.22329926547824 Phases=1 yearly=res_kw_231_pu

New Load.load_p1ulv6571_1 conn=wye bus1=p1ulv6571.1 kV=0.12 Vminpu=0.8 Vmaxpu=1.2 model=1 kW=6.2419949477893475 kvar=3.2518916743102033 Phases=1 yearly=res_kw_748_pu

New Load.load_p1ulv6571_2 conn=wye bus1=p1ulv6571.2 kV=0.12 Vminpu=0.8 Vmaxpu=1.2 model=1 kW=6.2419949477893475 kvar=3.2518916743102033 Phases=1 yearly=res_kw_748_pu

New Load.load_p1ulv6572_1 conn=wye bus1=p1ulv6572.1 kV=0.12 Vminpu=0.8 Vmaxpu=1.2 model=1 kW=11.506702661284509 kvar=3.22329926547824 Phases=1 yearly=res_kw_231_pu

New Load.load_p1ulv6572_2 conn=wye bus1=p1ulv6572.2 kV=0.12 Vminpu=0.8 Vmaxpu=1.2 model=1 kW=11.506702661284509 kvar=3.22329926547824 Phases=1 yearly=res_kw_231_pu

New Load.load_p1ulv6573_1 conn=wye bus1=p1ulv6573.1 kV=0.12 Vminpu=0.8 Vmaxpu=1.2 model=1 kW=3.3701610259235064 kvar=1.065454990641787 Phases=1 yearly=res_kw_1037_pu

New Load.load_p1ulv6573_2 conn=wye bus1=p1ulv6573.2 kV=0.12 Vminpu=0.8 Vmaxpu=1.2 model=1 kW=3.3701610259235064 kvar=1.065454990641787 Phases=1 yearly=res_kw_1037_pu

New Load.load_p1ulv6575_1 conn=wye bus1=p1ulv6575.1 kV=0.12 Vminpu=0.8 Vmaxpu=1.2 model=1 kW=4.221644888169981 kvar=1.626034048631708 Phases=1 yearly=res_kw_90_pu

New Load.load_p1ulv6575_2 conn=wye bus1=p1ulv6575.2 kV=0.12 Vminpu=0.8 Vmaxpu=1.2 model=1 kW=4.221644888169981 kvar=1.626034048631708 Phases=1 yearly=res_kw_90_pu

New Load.load_p1ulv6576 conn=wye bus1=p1ulv6576.1.2.3 kV=0.48 Vminpu=0.8 Vmaxpu=1.2 model=1 kW=43.73505631398508 kvar=5.0290236670440045 Phases=3 yearly=res_kw_598_pu

New Load.load_p1ulv6577_1 conn=wye bus1=p1ulv6577.1 kV=0.12 Vminpu=0.8 Vmaxpu=1.2 model=1 kW=10.385223275469155 kvar=4.238948256103666 Phases=1 yearly=res_kw_146_pu

New Load.load_p1ulv6577_2 conn=wye bus1=p1ulv6577.2 kV=0.12 Vminpu=0.8 Vmaxpu=1.2 model=1 kW=10.385223275469155 kvar=4.238948256103666 Phases=1 yearly=res_kw_146_pu

New Load.load_p1ulv6578_1 conn=wye bus1=p1ulv6578.1 kV=0.12 Vminpu=0.8 Vmaxpu=1.2 model=1 kW=5.5259285212797185 kvar=1.453865144609132 Phases=1 yearly=res_kw_216_pu

New Load.load_p1ulv6578_2 conn=wye bus1=p1ulv6578.2 kV=0.12 Vminpu=0.8 Vmaxpu=1.2 model=1 kW=5.5259285212797185 kvar=1.453865144609132 Phases=1 yearly=res_kw_216_pu

New Load.load_p1ulv6579_1 conn=wye bus1=p1ulv6579.1 kV=0.12 Vminpu=0.8 Vmaxpu=1.2 model=1 kW=5.991917116566147 kvar=1.6692124001399427 Phases=1 yearly=res_kw_314_pu

New Load.load_p1ulv6579_2 conn=wye bus1=p1ulv6579.2 kV=0.12 Vminpu=0.8 Vmaxpu=1.2 model=1 kW=5.991917116566147 kvar=1.6692124001399427 Phases=1 yearly=res_kw_314_pu

New Load.load_p1ulv6580_1 conn=wye bus1=p1ulv6580.1 kV=0.12 Vminpu=0.8 Vmaxpu=1.2 model=1 kW=15.752198264754231 kvar=0.5766775502462211 Phases=1 yearly=com_kw_14219_pu

New Load.load_p1ulv6580_2 conn=wye bus1=p1ulv6580.2 kV=0.12 Vminpu=0.8 Vmaxpu=1.2 model=1 kW=15.752198264754231 kvar=0.5766775502462211 Phases=1 yearly=com_kw_14219_pu

New Load.load_p1ulv6581_1 conn=wye bus1=p1ulv6581.1 kV=0.12 Vminpu=0.8 Vmaxpu=1.2 model=1 kW=2.4402285312138985 kvar=0.9342273883677934 Phases=1 yearly=res_kw_409_pu

New Load.load_p1ulv6581_2 conn=wye bus1=p1ulv6581.2 kV=0.12 Vminpu=0.8 Vmaxpu=1.2 model=1 kW=2.4402285312138985 kvar=0.9342273883677934 Phases=1 yearly=res_kw_409_pu

New Load.load_p1ulv6582_1 conn=wye bus1=p1ulv6582.1 kV=0.12 Vminpu=0.8 Vmaxpu=1.2 model=1 kW=6.817994061838357 kvar=0.9100697715919355 Phases=1 yearly=res_kw_1099_pu

New Load.load_p1ulv6582_2 conn=wye bus1=p1ulv6582.2 kV=0.12 Vminpu=0.8 Vmaxpu=1.2 model=1 kW=6.817994061838357 kvar=0.9100697715919355 Phases=1 yearly=res_kw_1099_pu

New Load.load_p1ulv6583_1 conn=wye bus1=p1ulv6583.1 kV=0.12 Vminpu=0.8 Vmaxpu=1.2 model=1 kW=2.252586941983099 kvar=1.0135983600233158 Phases=1 yearly=res_kw_853_pu

New Load.load_p1ulv6583_2 conn=wye bus1=p1ulv6583.2 kV=0.12 Vminpu=0.8 Vmaxpu=1.2 model=1 kW=2.252586941983099 kvar=1.0135983600233158 Phases=1 yearly=res_kw_853_pu

New Load.load_p1ulv6584_1 conn=wye bus1=p1ulv6584.1 kV=0.12 Vminpu=0.8 Vmaxpu=1.2 model=1 kW=2.605021030189827 kvar=1.0007509371876184 Phases=1 yearly=res_kw_24_pu

New Load.load_p1ulv6584_2 conn=wye bus1=p1ulv6584.2 kV=0.12 Vminpu=0.8 Vmaxpu=1.2 model=1 kW=2.605021030189827 kvar=1.0007509371876184 Phases=1 yearly=res_kw_24_pu

New Load.load_p1ulv6586_1 conn=wye bus1=p1ulv6586.1 kV=0.12 Vminpu=0.8 Vmaxpu=1.2 model=1 kW=2.605021030189827 kvar=1.0007509371876184 Phases=1 yearly=res_kw_24_pu

New Load.load_p1ulv6586_2 conn=wye bus1=p1ulv6586.2 kV=0.12 Vminpu=0.8 Vmaxpu=1.2 model=1 kW=2.605021030189827 kvar=1.0007509371876184 Phases=1 yearly=res_kw_24_pu

New Load.load_p1ulv6587_1 conn=wye bus1=p1ulv6587.1 kV=0.12 Vminpu=0.8 Vmaxpu=1.2 model=1 kW=2.6241521841182514 kvar=0.8429304779950015 Phases=1 yearly=res_kw_33_pu

New Load.load_p1ulv6587_2 conn=wye bus1=p1ulv6587.2 kV=0.12 Vminpu=0.8 Vmaxpu=1.2 model=1 kW=2.6241521841182514 kvar=0.8429304779950015 Phases=1 yearly=res_kw_33_pu

New Load.load_p1ulv6588_1 conn=wye bus1=p1ulv6588.1 kV=0.12 Vminpu=0.8 Vmaxpu=1.2 model=1 kW=12.235323130683785 kvar=3.343555329740589 Phases=1 yearly=res_kw_1104_pu

New Load.load_p1ulv6588_2 conn=wye bus1=p1ulv6588.2 kV=0.12 Vminpu=0.8 Vmaxpu=1.2 model=1 kW=12.235323130683785 kvar=3.343555329740589 Phases=1 yearly=res_kw_1104_pu

New Load.load_p1ulv6589_1 conn=wye bus1=p1ulv6589.1 kV=0.12 Vminpu=0.8 Vmaxpu=1.2 model=1 kW=3.3701610259235064 kvar=1.065454990641787 Phases=1 yearly=res_kw_1037_pu

New Load.load_p1ulv6589_2 conn=wye bus1=p1ulv6589.2 kV=0.12 Vminpu=0.8 Vmaxpu=1.2 model=1 kW=3.3701610259235064 kvar=1.065454990641787 Phases=1 yearly=res_kw_1037_pu

New Load.load_p1ulv6590 conn=wye bus1=p1ulv6590.1.2.3 kV=0.48 Vminpu=0.8 Vmaxpu=1.2 model=1 kW=215.59660348407914 kvar=41.073782987768226 Phases=3 yearly=com_kw_12965_pu

New Load.load_p1ulv6592_1 conn=wye bus1=p1ulv6592.1 kV=0.12 Vminpu=0.8 Vmaxpu=1.2 model=1 kW=9.430957699174042 kvar=1.673368555735492 Phases=1 yearly=res_kw_742_pu

New Load.load_p1ulv6592_2 conn=wye bus1=p1ulv6592.2 kV=0.12 Vminpu=0.8 Vmaxpu=1.2 model=1 kW=9.430957699174042 kvar=1.673368555735492 Phases=1 yearly=res_kw_742_pu

New Load.load_p1ulv6593 conn=wye bus1=p1ulv6593.1.2.3 kV=0.48 Vminpu=0.8 Vmaxpu=1.2 model=1 kW=20.34811553716727 kvar=4.467267472776305 Phases=3 yearly=com_kw_13526_pu

New Load.load_p1ulv6594_1 conn=wye bus1=p1ulv6594.1 kV=0.12 Vminpu=0.8 Vmaxpu=1.2 model=1 kW=2.8808589162778904 kvar=0.2835073949750637 Phases=1 yearly=res_kw_1036_pu

New Load.load_p1ulv6594_2 conn=wye bus1=p1ulv6594.2 kV=0.12 Vminpu=0.8 Vmaxpu=1.2 model=1 kW=2.8808589162778904 kvar=0.2835073949750637 Phases=1 yearly=res_kw_1036_pu

New Load.load_p1ulv6595 conn=wye bus1=p1ulv6595.1.2.3 kV=0.48 Vminpu=0.8 Vmaxpu=1.2 model=1 kW=20.950752597351638 kvar=5.267661803724949 Phases=3 yearly=com_kw_14805_pu

New Load.load_p1ulv6597_1 conn=wye bus1=p1ulv6597.1 kV=0.12 Vminpu=0.8 Vmaxpu=1.2 model=1 kW=6.818215214779126 kvar=1.8621564505044135 Phases=1 yearly=com_kw_13316_pu

New Load.load_p1ulv6597_2 conn=wye bus1=p1ulv6597.2 kV=0.12 Vminpu=0.8 Vmaxpu=1.2 model=1 kW=6.818215214779126 kvar=1.8621564505044135 Phases=1 yearly=com_kw_13316_pu

New Load.load_p1ulv6599 conn=wye bus1=p1ulv6599.1.2.3 kV=0.48 Vminpu=0.8 Vmaxpu=1.2 model=1 kW=64.0003040768543 kvar=15.85419090843042 Phases=3 yearly=res_kw_1074_pu

New Load.load_p1ulv6600 conn=wye bus1=p1ulv6600.1.2.3 kV=0.48 Vminpu=0.8 Vmaxpu=1.2 model=1 kW=60.66802016566287 kvar=10.226166406282765 Phases=3 yearly=res_kw_1032_pu

New Load.load_p1ulv6601 conn=wye bus1=p1ulv6601.1.2.3 kV=0.48 Vminpu=0.8 Vmaxpu=1.2 model=1 kW=74.5211596299989 kvar=21.683119368041968 Phases=3 yearly=res_kw_138_pu

New Load.load_p1ulv6603 conn=wye bus1=p1ulv6603.1.2.3 kV=0.48 Vminpu=0.8 Vmaxpu=1.2 model=1 kW=31.56390894948716 kvar=5.59016195527881 Phases=3 yearly=res_kw_76_pu

New Load.load_p1ulv6604_1 conn=wye bus1=p1ulv6604.1 kV=0.12 Vminpu=0.8 Vmaxpu=1.2 model=1 kW=2.3700113203165794 kvar=1.0419328311463634 Phases=1 yearly=res_kw_327_pu

New Load.load_p1ulv6604_2 conn=wye bus1=p1ulv6604.2 kV=0.12 Vminpu=0.8 Vmaxpu=1.2 model=1 kW=2.3700113203165794 kvar=1.0419328311463634 Phases=1 yearly=res_kw_327_pu

New Load.load_p1ulv6605 conn=wye bus1=p1ulv6605.1.2.3 kV=0.48 Vminpu=0.8 Vmaxpu=1.2 model=1 kW=22.37300704356237 kvar=1.5751126418301655 Phases=3 yearly=res_kw_697_pu

New Load.load_p1ulv6606 conn=wye bus1=p1ulv6606.1.2.3 kV=0.48 Vminpu=0.8 Vmaxpu=1.2 model=1 kW=17.66011877759799 kvar=0.6621589123138862 Phases=3 yearly=res_kw_630_pu

New Load.load_p1ulv6607 conn=wye bus1=p1ulv6607.1.2.3 kV=0.48 Vminpu=0.8 Vmaxpu=1.2 model=1 kW=76.4586945309137 kvar=10.17990647386384 Phases=3 yearly=res_kw_672_pu

New Load.load_p1ulv6608 conn=wye bus1=p1ulv6608.1.2.3 kV=0.48 Vminpu=0.8 Vmaxpu=1.2 model=1 kW=43.73505631398508 kvar=5.0290236670440045 Phases=3 yearly=res_kw_598_pu

New Load.load_p1ulv6609_1 conn=wye bus1=p1ulv6609.1 kV=0.12 Vminpu=0.8 Vmaxpu=1.2 model=1 kW=28.57444899876522 kvar=6.33370896516556 Phases=1 yearly=res_kw_439_pu

New Load.load_p1ulv6609_2 conn=wye bus1=p1ulv6609.2 kV=0.12 Vminpu=0.8 Vmaxpu=1.2 model=1 kW=28.57444899876522 kvar=6.33370896516556 Phases=1 yearly=res_kw_439_pu

New Load.load_p1ulv6610 conn=wye bus1=p1ulv6610.1.2.3 kV=0.48 Vminpu=0.8 Vmaxpu=1.2 model=1 kW=60.66802016566287 kvar=10.226166406282765 Phases=3 yearly=res_kw_1032_pu

New Load.load_p1ulv6611 conn=wye bus1=p1ulv6611.1.2.3 kV=0.48 Vminpu=0.8 Vmaxpu=1.2 model=1 kW=34.44517989778564 kvar=16.341768372095544 Phases=3 yearly=res_kw_473_pu

New Load.load_p1ulv6612 conn=wye bus1=p1ulv6612.1.2.3 kV=0.48 Vminpu=0.8 Vmaxpu=1.2 model=1 kW=74.5211596299989 kvar=21.683119368041968 Phases=3 yearly=res_kw_138_pu

New Load.load_p1ulv6614 conn=wye bus1=p1ulv6614.1.2.3 kV=0.48 Vminpu=0.8 Vmaxpu=1.2 model=1 kW=31.56390894948716 kvar=5.59016195527881 Phases=3 yearly=res_kw_76_pu

New Load.load_p1ulv6615 conn=wye bus1=p1ulv6615.1.2.3 kV=0.48 Vminpu=0.8 Vmaxpu=1.2 model=1 kW=43.73505631398508 kvar=5.0290236670440045 Phases=3 yearly=res_kw_598_pu

New Load.load_p1ulv6616 conn=wye bus1=p1ulv6616.1.2.3 kV=0.48 Vminpu=0.8 Vmaxpu=1.2 model=1 kW=64.04336756487434 kvar=9.10900063027937 Phases=3 yearly=res_kw_876_pu

New Load.load_p1ulv6618 conn=wye bus1=p1ulv6618.1.2.3 kV=0.48 Vminpu=0.8 Vmaxpu=1.2 model=1 kW=31.56390894948716 kvar=5.59016195527881 Phases=3 yearly=res_kw_76_pu

New Load.load_p1ulv6619 conn=wye bus1=p1ulv6619.1.2.3 kV=0.48 Vminpu=0.8 Vmaxpu=1.2 model=1 kW=43.27018967162994 kvar=8.821343441318042 Phases=3 yearly=res_kw_916_pu

New Load.load_p1ulv6620 conn=wye bus1=p1ulv6620.1.2.3 kV=0.48 Vminpu=0.8 Vmaxpu=1.2 model=1 kW=22.37300704356237 kvar=1.5751126418301655 Phases=3 yearly=res_kw_697_pu

New Load.load_p1ulv6621_1 conn=wye bus1=p1ulv6621.1 kV=0.12 Vminpu=0.8 Vmaxpu=1.2 model=1 kW=18.487291050551754 kvar=3.8726939013399893 Phases=1 yearly=res_kw_271_pu

New Load.load_p1ulv6621_2 conn=wye bus1=p1ulv6621.2 kV=0.12 Vminpu=0.8 Vmaxpu=1.2 model=1 kW=18.487291050551754 kvar=3.8726939013399893 Phases=1 yearly=res_kw_271_pu

New Load.load_p1ulv6622 conn=wye bus1=p1ulv6622.1.2.3 kV=0.48 Vminpu=0.8 Vmaxpu=1.2 model=1 kW=59.72846886319797 kvar=12.07608368967826 Phases=3 yearly=res_kw_217_pu

New Load.load_p1ulv6623 conn=wye bus1=p1ulv6623.1.2.3 kV=0.48 Vminpu=0.8 Vmaxpu=1.2 model=1 kW=43.73505631398508 kvar=5.0290236670440045 Phases=3 yearly=res_kw_598_pu

New Load.load_p1ulv6624 conn=wye bus1=p1ulv6624.1.2.3 kV=0.48 Vminpu=0.8 Vmaxpu=1.2 model=1 kW=31.56390894948716 kvar=5.59016195527881 Phases=3 yearly=res_kw_76_pu

New Load.load_p1ulv6625 conn=wye bus1=p1ulv6625.1.2.3 kV=0.48 Vminpu=0.8 Vmaxpu=1.2 model=1 kW=60.66802016566287 kvar=10.226166406282765 Phases=3 yearly=res_kw_1032_pu

New Load.load_p1ulv6626 conn=wye bus1=p1ulv6626.1.2.3 kV=0.48 Vminpu=0.8 Vmaxpu=1.2 model=1 kW=43.73505631398508 kvar=5.0290236670440045 Phases=3 yearly=res_kw_598_pu

New Load.load_p1ulv6627 conn=wye bus1=p1ulv6627.1.2.3 kV=0.48 Vminpu=0.8 Vmaxpu=1.2 model=1 kW=43.73505631398508 kvar=5.0290236670440045 Phases=3 yearly=res_kw_598_pu

New Load.load_p1ulv6628_1 conn=wye bus1=p1ulv6628.1 kV=0.12 Vminpu=0.8 Vmaxpu=1.2 model=1 kW=2.3700113203165794 kvar=1.0419328311463634 Phases=1 yearly=res_kw_327_pu

New Load.load_p1ulv6628_2 conn=wye bus1=p1ulv6628.2 kV=0.12 Vminpu=0.8 Vmaxpu=1.2 model=1 kW=2.3700113203165794 kvar=1.0419328311463634 Phases=1 yearly=res_kw_327_pu

New Load.load_p1ulv9478_1 conn=wye bus1=p1ulv9478.1 kV=0.12 Vminpu=0.8 Vmaxpu=1.2 model=1 kW=6.495867403886884 kvar=1.0074089308244782 Phases=1 yearly=res_kw_597_pu

New Load.load_p1ulv9478_2 conn=wye bus1=p1ulv9478.2 kV=0.12 Vminpu=0.8 Vmaxpu=1.2 model=1 kW=6.495867403886884 kvar=1.0074089308244782 Phases=1 yearly=res_kw_597_pu

New Load.load_p1ulv9479_1 conn=wye bus1=p1ulv9479.1 kV=0.12 Vminpu=0.8 Vmaxpu=1.2 model=1 kW=6.847378896370207 kvar=0.2857422414791666 Phases=1 yearly=com_kw_14382_pu

New Load.load_p1ulv9479_2 conn=wye bus1=p1ulv9479.2 kV=0.12 Vminpu=0.8 Vmaxpu=1.2 model=1 kW=6.847378896370207 kvar=0.2857422414791666 Phases=1 yearly=com_kw_14382_pu

New Load.load_p1ulv9480_1 conn=wye bus1=p1ulv9480.1 kV=0.12 Vminpu=0.8 Vmaxpu=1.2 model=1 kW=6.847378896370207 kvar=0.2857422414791666 Phases=1 yearly=com_kw_14382_pu

New Load.load_p1ulv9480_2 conn=wye bus1=p1ulv9480.2 kV=0.12 Vminpu=0.8 Vmaxpu=1.2 model=1 kW=6.847378896370207 kvar=0.2857422414791666 Phases=1 yearly=com_kw_14382_pu

New Load.load_p1ulv9481 conn=wye bus1=p1ulv9481.1.2.3 kV=0.48 Vminpu=0.8 Vmaxpu=1.2 model=1 kW=359.6894358959385 kvar=105.981216307442 Phases=3 yearly=com_kw_12814_pu

New Load.load_p1ulv9482_1 conn=wye bus1=p1ulv9482.1 kV=0.12 Vminpu=0.8 Vmaxpu=1.2 model=1 kW=4.066587428282395 kvar=0.7788614811484863 Phases=1 yearly=res_kw_887_pu

New Load.load_p1ulv9482_2 conn=wye bus1=p1ulv9482.2 kV=0.12 Vminpu=0.8 Vmaxpu=1.2 model=1 kW=4.066587428282395 kvar=0.7788614811484863 Phases=1 yearly=res_kw_887_pu

New Load.load_p1ulv9483 conn=wye bus1=p1ulv9483.1.2.3 kV=0.48 Vminpu=0.8 Vmaxpu=1.2 model=1 kW=102.83620489813865 kvar=36.81420938044198 Phases=3 yearly=com_kw_14822_pu

New Load.load_p1ulv9484 conn=wye bus1=p1ulv9484.1.2.3 kV=0.48 Vminpu=0.8 Vmaxpu=1.2 model=1 kW=48.824437128589175 kvar=13.995877781176905 Phases=3 yearly=com_kw_14108_pu

New Load.load_p1ulv9492_1 conn=wye bus1=p1ulv9492.1 kV=0.12 Vminpu=0.8 Vmaxpu=1.2 model=1 kW=6.847378896370207 kvar=0.2857422414791666 Phases=1 yearly=com_kw_14382_pu

New Load.load_p1ulv9492_2 conn=wye bus1=p1ulv9492.2 kV=0.12 Vminpu=0.8 Vmaxpu=1.2 model=1 kW=6.847378896370207 kvar=0.2857422414791666 Phases=1 yearly=com_kw_14382_pu

New Load.load_p1ulv9493_1 conn=wye bus1=p1ulv9493.1 kV=0.12 Vminpu=0.8 Vmaxpu=1.2 model=1 kW=6.897997484512368 kvar=1.5073573946072503 Phases=1 yearly=res_kw_40_pu

New Load.load_p1ulv9493_2 conn=wye bus1=p1ulv9493.2 kV=0.12 Vminpu=0.8 Vmaxpu=1.2 model=1 kW=6.897997484512368 kvar=1.5073573946072503 Phases=1 yearly=res_kw_40_pu

New Load.load_p1ulv9621 conn=wye bus1=p1ulv9621.1.2.3 kV=0.48 Vminpu=0.8 Vmaxpu=1.2 model=1 kW=39.49992891101935 kvar=8.219832668460047 Phases=3 yearly=com_kw_13248_pu

New Load.load_p1ulv9622 conn=wye bus1=p1ulv9622.1.2.3 kV=0.48 Vminpu=0.8 Vmaxpu=1.2 model=1 kW=34.95025902709327 kvar=12.584382652547053 Phases=3 yearly=com_kw_14942_pu

New Load.load_p1ulv9623_1 conn=wye bus1=p1ulv9623.1 kV=0.12 Vminpu=0.8 Vmaxpu=1.2 model=1 kW=18.86126075506778 kvar=2.6552255941697256 Phases=1 yearly=com_kw_14691_pu

New Load.load_p1ulv9623_2 conn=wye bus1=p1ulv9623.2 kV=0.12 Vminpu=0.8 Vmaxpu=1.2 model=1 kW=18.86126075506778 kvar=2.6552255941697256 Phases=1 yearly=com_kw_14691_pu

New Load.load_p1ulv9624 conn=wye bus1=p1ulv9624.1.2.3 kV=0.48 Vminpu=0.8 Vmaxpu=1.2 model=1 kW=44.63242253317529 kvar=10.097066849540786 Phases=3 yearly=com_kw_14665_pu

New Load.load_p1ulv9625 conn=wye bus1=p1ulv9625.1.2.3 kV=0.48 Vminpu=0.8 Vmaxpu=1.2 model=1 kW=82.07638060650609 kvar=4.1271221195637455 Phases=3 yearly=com_kw_14522_pu

New Load.load_p1ulv9626_1 conn=wye bus1=p1ulv9626.1 kV=0.12 Vminpu=0.8 Vmaxpu=1.2 model=1 kW=13.826772016648539 kvar=5.611741585555789 Phases=1 yearly=com_kw_13960_pu

New Load.load_p1ulv9626_2 conn=wye bus1=p1ulv9626.2 kV=0.12 Vminpu=0.8 Vmaxpu=1.2 model=1 kW=13.826772016648539 kvar=5.611741585555789 Phases=1 yearly=com_kw_13960_pu

New Load.load_p1ulv9627 conn=wye bus1=p1ulv9627.1.2.3 kV=0.48 Vminpu=0.8 Vmaxpu=1.2 model=1 kW=39.49992891101935 kvar=8.219832668460047 Phases=3 yearly=com_kw_13248_pu

New Load.load_p1ulv9628 conn=wye bus1=p1ulv9628.1.2.3 kV=0.48 Vminpu=0.8 Vmaxpu=1.2 model=1 kW=26.44427339266591 kvar=8.619902188800983 Phases=3 yearly=com_kw_12801_pu

New Load.load_p1ulv9861_1 conn=wye bus1=p1ulv9861.1 kV=0.12 Vminpu=0.8 Vmaxpu=1.2 model=1 kW=9.341738473663403 kvar=2.018548151169967 Phases=1 yearly=res_kw_504_pu

New Load.load_p1ulv9861_2 conn=wye bus1=p1ulv9861.2 kV=0.12 Vminpu=0.8 Vmaxpu=1.2 model=1 kW=9.341738473663403 kvar=2.018548151169967 Phases=1 yearly=res_kw_504_pu

New Load.load_p1ulv9863_1 conn=wye bus1=p1ulv9863.1 kV=0.12 Vminpu=0.8 Vmaxpu=1.2 model=1 kW=4.897278139879629 kvar=1.0793580648076895 Phases=1 yearly=res_kw_645_pu

New Load.load_p1ulv9863_2 conn=wye bus1=p1ulv9863.2 kV=0.12 Vminpu=0.8 Vmaxpu=1.2 model=1 kW=4.897278139879629 kvar=1.0793580648076895 Phases=1 yearly=res_kw_645_pu

New Load.load_p1ulv9865_1 conn=wye bus1=p1ulv9865.1 kV=0.12 Vminpu=0.8 Vmaxpu=1.2 model=1 kW=9.666699253995569 kvar=2.090221480167897 Phases=1 yearly=res_kw_46_pu

New Load.load_p1ulv9865_2 conn=wye bus1=p1ulv9865.2 kV=0.12 Vminpu=0.8 Vmaxpu=1.2 model=1 kW=9.666699253995569 kvar=2.090221480167897 Phases=1 yearly=res_kw_46_pu

New Load.load_p1ulv9866_1 conn=wye bus1=p1ulv9866.1 kV=0.12 Vminpu=0.8 Vmaxpu=1.2 model=1 kW=7.151603169892386 kvar=1.493762478537685 Phases=1 yearly=res_kw_30_pu

New Load.load_p1ulv9866_2 conn=wye bus1=p1ulv9866.2 kV=0.12 Vminpu=0.8 Vmaxpu=1.2 model=1 kW=7.151603169892386 kvar=1.493762478537685 Phases=1 yearly=res_kw_30_pu

New Load.load_p1ulv10034_1 conn=wye bus1=p1ulv10034.1 kV=0.12 Vminpu=0.8 Vmaxpu=1.2 model=1 kW=13.97381950321165 kvar=0.8962586276271106 Phases=1 yearly=com_kw_13448_pu

New Load.load_p1ulv10034_2 conn=wye bus1=p1ulv10034.2 kV=0.12 Vminpu=0.8 Vmaxpu=1.2 model=1 kW=13.97381950321165 kvar=0.8962586276271106 Phases=1 yearly=com_kw_13448_pu

New Load.load_p1ulv10035_1 conn=wye bus1=p1ulv10035.1 kV=0.12 Vminpu=0.8 Vmaxpu=1.2 model=1 kW=5.121080771859233 kvar=1.1807848049623457 Phases=1 yearly=res_kw_691_pu

New Load.load_p1ulv10035_2 conn=wye bus1=p1ulv10035.2 kV=0.12 Vminpu=0.8 Vmaxpu=1.2 model=1 kW=5.121080771859233 kvar=1.1807848049623457 Phases=1 yearly=res_kw_691_pu

New Load.load_p1ulv10037_1 conn=wye bus1=p1ulv10037.1 kV=0.12 Vminpu=0.8 Vmaxpu=1.2 model=1 kW=4.666080754031652 kvar=0.9704814918535188 Phases=1 yearly=res_kw_280_pu

New Load.load_p1ulv10037_2 conn=wye bus1=p1ulv10037.2 kV=0.12 Vminpu=0.8 Vmaxpu=1.2 model=1 kW=4.666080754031652 kvar=0.9704814918535188 Phases=1 yearly=res_kw_280_pu

New Load.load_p1ulv10038_1 conn=wye bus1=p1ulv10038.1 kV=0.12 Vminpu=0.8 Vmaxpu=1.2 model=1 kW=2.456740089175818 kvar=0.4991709793701422 Phases=1 yearly=res_kw_331_pu

New Load.load_p1ulv10038_2 conn=wye bus1=p1ulv10038.2 kV=0.12 Vminpu=0.8 Vmaxpu=1.2 model=1 kW=2.456740089175818 kvar=0.4991709793701422 Phases=1 yearly=res_kw_331_pu

New Load.load_p1ulv10039_1 conn=wye bus1=p1ulv10039.1 kV=0.12 Vminpu=0.8 Vmaxpu=1.2 model=1 kW=2.605021030189827 kvar=1.0007509371876184 Phases=1 yearly=res_kw_24_pu

New Load.load_p1ulv10039_2 conn=wye bus1=p1ulv10039.2 kV=0.12 Vminpu=0.8 Vmaxpu=1.2 model=1 kW=2.605021030189827 kvar=1.0007509371876184 Phases=1 yearly=res_kw_24_pu

New Load.load_p1ulv10040_1 conn=wye bus1=p1ulv10040.1 kV=0.12 Vminpu=0.8 Vmaxpu=1.2 model=1 kW=13.098094558867626 kvar=1.9465584989288183 Phases=1 yearly=res_kw_795_pu

New Load.load_p1ulv10040_2 conn=wye bus1=p1ulv10040.2 kV=0.12 Vminpu=0.8 Vmaxpu=1.2 model=1 kW=13.098094558867626 kvar=1.9465584989288183 Phases=1 yearly=res_kw_795_pu

New Load.load_p1ulv10043_1 conn=wye bus1=p1ulv10043.1 kV=0.12 Vminpu=0.8 Vmaxpu=1.2 model=1 kW=5.058089883582798 kvar=1.1324830496512528 Phases=1 yearly=res_kw_220_pu

New Load.load_p1ulv10043_2 conn=wye bus1=p1ulv10043.2 kV=0.12 Vminpu=0.8 Vmaxpu=1.2 model=1 kW=5.058089883582798 kvar=1.1324830496512528 Phases=1 yearly=res_kw_220_pu

New Load.load_p1ulv10044_1 conn=wye bus1=p1ulv10044.1 kV=0.12 Vminpu=0.8 Vmaxpu=1.2 model=1 kW=3.963001053413761 kvar=0.9410786890170905 Phases=1 yearly=res_kw_1256_pu

New Load.load_p1ulv10044_2 conn=wye bus1=p1ulv10044.2 kV=0.12 Vminpu=0.8 Vmaxpu=1.2 model=1 kW=3.963001053413761 kvar=0.9410786890170905 Phases=1 yearly=res_kw_1256_pu

New Load.load_p1ulv10045_1 conn=wye bus1=p1ulv10045.1 kV=0.12 Vminpu=0.8 Vmaxpu=1.2 model=1 kW=6.817994061838357 kvar=0.9100697715919355 Phases=1 yearly=res_kw_1099_pu

New Load.load_p1ulv10045_2 conn=wye bus1=p1ulv10045.2 kV=0.12 Vminpu=0.8 Vmaxpu=1.2 model=1 kW=6.817994061838357 kvar=0.9100697715919355 Phases=1 yearly=res_kw_1099_pu

New Load.load_p1ulv10046_1 conn=wye bus1=p1ulv10046.1 kV=0.12 Vminpu=0.8 Vmaxpu=1.2 model=1 kW=2.9178485115923896 kvar=1.0715119122844614 Phases=1 yearly=res_kw_1149_pu

New Load.load_p1ulv10046_2 conn=wye bus1=p1ulv10046.2 kV=0.12 Vminpu=0.8 Vmaxpu=1.2 model=1 kW=2.9178485115923896 kvar=1.0715119122844614 Phases=1 yearly=res_kw_1149_pu

New Load.load_p1ulv10047_1 conn=wye bus1=p1ulv10047.1 kV=0.12 Vminpu=0.8 Vmaxpu=1.2 model=1 kW=3.963001053413761 kvar=0.9410786890170905 Phases=1 yearly=res_kw_1256_pu

New Load.load_p1ulv10047_2 conn=wye bus1=p1ulv10047.2 kV=0.12 Vminpu=0.8 Vmaxpu=1.2 model=1 kW=3.963001053413761 kvar=0.9410786890170905 Phases=1 yearly=res_kw_1256_pu

New Load.load_p1ulv10048 conn=wye bus1=p1ulv10048.1.2.3 kV=0.48 Vminpu=0.8 Vmaxpu=1.2 model=1 kW=27.61476157041208 kvar=2.053452334937639 Phases=3 yearly=res_kw_1089_pu

New Load.load_p1ulv10049_1 conn=wye bus1=p1ulv10049.1 kV=0.12 Vminpu=0.8 Vmaxpu=1.2 model=1 kW=2.9178485115923896 kvar=1.0715119122844614 Phases=1 yearly=res_kw_1149_pu

New Load.load_p1ulv10049_2 conn=wye bus1=p1ulv10049.2 kV=0.12 Vminpu=0.8 Vmaxpu=1.2 model=1 kW=2.9178485115923896 kvar=1.0715119122844614 Phases=1 yearly=res_kw_1149_pu

New Load.load_p1ulv10050_1 conn=wye bus1=p1ulv10050.1 kV=0.12 Vminpu=0.8 Vmaxpu=1.2 model=1 kW=2.9178485115923896 kvar=1.0715119122844614 Phases=1 yearly=res_kw_1149_pu

New Load.load_p1ulv10050_2 conn=wye bus1=p1ulv10050.2 kV=0.12 Vminpu=0.8 Vmaxpu=1.2 model=1 kW=2.9178485115923896 kvar=1.0715119122844614 Phases=1 yearly=res_kw_1149_pu

New Load.load_p1ulv10051_1 conn=wye bus1=p1ulv10051.1 kV=0.12 Vminpu=0.8 Vmaxpu=1.2 model=1 kW=2.9178485115923896 kvar=1.0715119122844614 Phases=1 yearly=res_kw_1149_pu

New Load.load_p1ulv10051_2 conn=wye bus1=p1ulv10051.2 kV=0.12 Vminpu=0.8 Vmaxpu=1.2 model=1 kW=2.9178485115923896 kvar=1.0715119122844614 Phases=1 yearly=res_kw_1149_pu

New Load.load_p1ulv10052_1 conn=wye bus1=p1ulv10052.1 kV=0.12 Vminpu=0.8 Vmaxpu=1.2 model=1 kW=2.9178485115923896 kvar=1.0715119122844614 Phases=1 yearly=res_kw_1149_pu

New Load.load_p1ulv10052_2 conn=wye bus1=p1ulv10052.2 kV=0.12 Vminpu=0.8 Vmaxpu=1.2 model=1 kW=2.9178485115923896 kvar=1.0715119122844614 Phases=1 yearly=res_kw_1149_pu

New Load.load_p1ulv10053_1 conn=wye bus1=p1ulv10053.1 kV=0.12 Vminpu=0.8 Vmaxpu=1.2 model=1 kW=3.963001053413761 kvar=0.9410786890170905 Phases=1 yearly=res_kw_1256_pu

New Load.load_p1ulv10053_2 conn=wye bus1=p1ulv10053.2 kV=0.12 Vminpu=0.8 Vmaxpu=1.2 model=1 kW=3.963001053413761 kvar=0.9410786890170905 Phases=1 yearly=res_kw_1256_pu

New Load.load_p1ulv10054_1 conn=wye bus1=p1ulv10054.1 kV=0.12 Vminpu=0.8 Vmaxpu=1.2 model=1 kW=2.9178485115923896 kvar=1.0715119122844614 Phases=1 yearly=res_kw_1149_pu

New Load.load_p1ulv10054_2 conn=wye bus1=p1ulv10054.2 kV=0.12 Vminpu=0.8 Vmaxpu=1.2 model=1 kW=2.9178485115923896 kvar=1.0715119122844614 Phases=1 yearly=res_kw_1149_pu

New Load.load_p1ulv10055_1 conn=wye bus1=p1ulv10055.1 kV=0.12 Vminpu=0.8 Vmaxpu=1.2 model=1 kW=2.9178485115923896 kvar=1.0715119122844614 Phases=1 yearly=res_kw_1149_pu
