New Load.load_p1ulv345_1 conn=wye bus1=p1ulv345.1 kV=0.12 Vminpu=0.8 Vmaxpu=1.2 model=1 kW=8.447919937810639 kvar=4.074999759912348 Phases=1 yearly=res_kw_461_pu

New Load.load_p1ulv345_2 conn=wye bus1=p1ulv345.2 kV=0.12 Vminpu=0.8 Vmaxpu=1.2 model=1 kW=8.447919937810639 kvar=4.074999759912348 Phases=1 yearly=res_kw_461_pu

New Load.load_p1ulv346_1 conn=wye bus1=p1ulv346.1 kV=0.12 Vminpu=0.8 Vmaxpu=1.2 model=1 kW=4.788649591238137 kvar=1.023651375705972 Phases=1 yearly=res_kw_512_pu

New Load.load_p1ulv346_2 conn=wye bus1=p1ulv346.2 kV=0.12 Vminpu=0.8 Vmaxpu=1.2 model=1 kW=4.788649591238137 kvar=1.023651375705972 Phases=1 yearly=res_kw_512_pu

New Load.load_p1ulv348_1 conn=wye bus1=p1ulv348.1 kV=0.12 Vminpu=0.8 Vmaxpu=1.2 model=1 kW=5.777968789114468 kvar=0.5425823089827511 Phases=1 yearly=com_kw_15253_pu

New Load.load_p1ulv348_2 conn=wye bus1=p1ulv348.2 kV=0.12 Vminpu=0.8 Vmaxpu=1.2 model=1 kW=5.777968789114468 kvar=0.5425823089827511 Phases=1 yearly=com_kw_15253_pu

New Load.load_p1ulv354_1 conn=wye bus1=p1ulv354.1 kV=0.12 Vminpu=0.8 Vmaxpu=1.2 model=1 kW=18.487291050551754 kvar=3.8726939013399893 Phases=1 yearly=res_kw_271_pu

New Load.load_p1ulv354_2 conn=wye bus1=p1ulv354.2 kV=0.12 Vminpu=0.8 Vmaxpu=1.2 model=1 kW=18.487291050551754 kvar=3.8726939013399893 Phases=1 yearly=res_kw_271_pu

New Load.load_p1ulv355_1 conn=wye bus1=p1ulv355.1 kV=0.12 Vminpu=0.8 Vmaxpu=1.2 model=1 kW=5.675346369339635 kvar=1.238985226090579 Phases=1 yearly=res_kw_1186_pu

New Load.load_p1ulv355_2 conn=wye bus1=p1ulv355.2 kV=0.12 Vminpu=0.8 Vmaxpu=1.2 model=1 kW=5.675346369339635 kvar=1.238985226090579 Phases=1 yearly=res_kw_1186_pu

New Load.load_p1ulv359_1 conn=wye bus1=p1ulv359.1 kV=0.12 Vminpu=0.8 Vmaxpu=1.2 model=1 kW=2.901745080312197 kvar=1.2924395298142213 Phases=1 yearly=res_kw_225_pu

New Load.load_p1ulv359_2 conn=wye bus1=p1ulv359.2 kV=0.12 Vminpu=0.8 Vmaxpu=1.2 model=1 kW=2.901745080312197 kvar=1.2924395298142213 Phases=1 yearly=res_kw_225_pu

New Load.load_p1ulv360_1 conn=wye bus1=p1ulv360.1 kV=0.12 Vminpu=0.8 Vmaxpu=1.2 model=1 kW=3.8748715750127736 kvar=1.5614372175332516 Phases=1 yearly=res_kw_517_pu

New Load.load_p1ulv360_2 conn=wye bus1=p1ulv360.2 kV=0.12 Vminpu=0.8 Vmaxpu=1.2 model=1 kW=3.8748715750127736 kvar=1.5614372175332516 Phases=1 yearly=res_kw_517_pu

New Load.load_p1ulv361_1 conn=wye bus1=p1ulv361.1 kV=0.12 Vminpu=0.8 Vmaxpu=1.2 model=1 kW=6.251204132654125 kvar=1.5952530188558731 Phases=1 yearly=res_kw_1248_pu

New Load.load_p1ulv361_2 conn=wye bus1=p1ulv361.2 kV=0.12 Vminpu=0.8 Vmaxpu=1.2 model=1 kW=6.251204132654125 kvar=1.5952530188558731 Phases=1 yearly=res_kw_1248_pu

New Load.load_p1ulv362_1 conn=wye bus1=p1ulv362.1 kV=0.12 Vminpu=0.8 Vmaxpu=1.2 model=1 kW=7.259772519581312 kvar=1.3210086815250959 Phases=1 yearly=res_kw_128_pu

New Load.load_p1ulv362_2 conn=wye bus1=p1ulv362.2 kV=0.12 Vminpu=0.8 Vmaxpu=1.2 model=1 kW=7.259772519581312 kvar=1.3210086815250959 Phases=1 yearly=res_kw_128_pu

New Load.load_p1ulv363_1 conn=wye bus1=p1ulv363.1 kV=0.12 Vminpu=0.8 Vmaxpu=1.2 model=1 kW=2.605021030189827 kvar=1.0007509371876184 Phases=1 yearly=res_kw_24_pu

New Load.load_p1ulv363_2 conn=wye bus1=p1ulv363.2 kV=0.12 Vminpu=0.8 Vmaxpu=1.2 model=1 kW=2.605021030189827 kvar=1.0007509371876184 Phases=1 yearly=res_kw_24_pu

New Load.load_p1ulv364_1 conn=wye bus1=p1ulv364.1 kV=0.12 Vminpu=0.8 Vmaxpu=1.2 model=1 kW=3.4468581914223817 kvar=1.1411197390818253 Phases=1 yearly=res_kw_250_pu

New Load.load_p1ulv364_2 conn=wye bus1=p1ulv364.2 kV=0.12 Vminpu=0.8 Vmaxpu=1.2 model=1 kW=3.4468581914223817 kvar=1.1411197390818253 Phases=1 yearly=res_kw_250_pu

New Load.load_p1ulv365_1 conn=wye bus1=p1ulv365.1 kV=0.12 Vminpu=0.8 Vmaxpu=1.2 model=1 kW=3.4468581914223817 kvar=1.1411197390818253 Phases=1 yearly=res_kw_250_pu

New Load.load_p1ulv365_2 conn=wye bus1=p1ulv365.2 kV=0.12 Vminpu=0.8 Vmaxpu=1.2 model=1 kW=3.4468581914223817 kvar=1.1411197390818253 Phases=1 yearly=res_kw_250_pu

New Load.load_p1ulv366_1 conn=wye bus1=p1ulv366.1 kV=0.12 Vminpu=0.8 Vmaxpu=1.2 model=1 kW=2.1894046505184286 kvar=0.7281040757251952 Phases=1 yearly=res_kw_1042_pu

New Load.load_p1ulv366_2 conn=wye bus1=p1ulv366.2 kV=0.12 Vminpu=0.8 Vmaxpu=1.2 model=1 kW=2.1894046505184286 kvar=0.7281040757251952 Phases=1 yearly=res_kw_1042_pu

New Load.load_p1ulv368_1 conn=wye bus1=p1ulv368.1 kV=0.12 Vminpu=0.8 Vmaxpu=1.2 model=1 kW=10.763137052551695 kvar=1.7145459594113484 Phases=1 yearly=res_kw_505_pu

New Load.load_p1ulv368_2 conn=wye bus1=p1ulv368.2 kV=0.12 Vminpu=0.8 Vmaxpu=1.2 model=1 kW=10.763137052551695 kvar=1.7145459594113484 Phases=1 yearly=res_kw_505_pu

New Load.load_p1ulv369_1 conn=wye bus1=p1ulv369.1 kV=0.12 Vminpu=0.8 Vmaxpu=1.2 model=1 kW=11.457721527492426 kvar=1.3801854390555242 Phases=1 yearly=res_kw_861_pu

New Load.load_p1ulv369_2 conn=wye bus1=p1ulv369.2 kV=0.12 Vminpu=0.8 Vmaxpu=1.2 model=1 kW=11.457721527492426 kvar=1.3801854390555242 Phases=1 yearly=res_kw_861_pu

New Load.load_p1ulv370_1 conn=wye bus1=p1ulv370.1 kV=0.12 Vminpu=0.8 Vmaxpu=1.2 model=1 kW=3.3641909207712115 kvar=0.9284266244461494 Phases=1 yearly=res_kw_523_pu

New Load.load_p1ulv370_2 conn=wye bus1=p1ulv370.2 kV=0.12 Vminpu=0.8 Vmaxpu=1.2 model=1 kW=3.3641909207712115 kvar=0.9284266244461494 Phases=1 yearly=res_kw_523_pu

New Load.load_p1ulv371_1 conn=wye bus1=p1ulv371.1 kV=0.12 Vminpu=0.8 Vmaxpu=1.2 model=1 kW=2.605021030189827 kvar=1.0007509371876184 Phases=1 yearly=res_kw_24_pu

New Load.load_p1ulv371_2 conn=wye bus1=p1ulv371.2 kV=0.12 Vminpu=0.8 Vmaxpu=1.2 model=1 kW=2.605021030189827 kvar=1.0007509371876184 Phases=1 yearly=res_kw_24_pu

New Load.load_p1ulv372_1 conn=wye bus1=p1ulv372.1 kV=0.12 Vminpu=0.8 Vmaxpu=1.2 model=1 kW=4.760442075087689 kvar=1.0766161551105315 Phases=1 yearly=res_kw_807_pu

New Load.load_p1ulv372_2 conn=wye bus1=p1ulv372.2 kV=0.12 Vminpu=0.8 Vmaxpu=1.2 model=1 kW=4.760442075087689 kvar=1.0766161551105315 Phases=1 yearly=res_kw_807_pu

New Load.load_p1ulv373_1 conn=wye bus1=p1ulv373.1 kV=0.12 Vminpu=0.8 Vmaxpu=1.2 model=1 kW=3.469521951913567 kvar=0.9490620687569232 Phases=1 yearly=res_kw_825_pu

New Load.load_p1ulv373_2 conn=wye bus1=p1ulv373.2 kV=0.12 Vminpu=0.8 Vmaxpu=1.2 model=1 kW=3.469521951913567 kvar=0.9490620687569232 Phases=1 yearly=res_kw_825_pu

New Load.load_p1ulv374_1 conn=wye bus1=p1ulv374.1 kV=0.12 Vminpu=0.8 Vmaxpu=1.2 model=1 kW=2.40000228705824 kvar=1.0173787262529668 Phases=1 yearly=res_kw_1205_pu

New Load.load_p1ulv374_2 conn=wye bus1=p1ulv374.2 kV=0.12 Vminpu=0.8 Vmaxpu=1.2 model=1 kW=2.40000228705824 kvar=1.0173787262529668 Phases=1 yearly=res_kw_1205_pu

New Load.load_p1ulv375_1 conn=wye bus1=p1ulv375.1 kV=0.12 Vminpu=0.8 Vmaxpu=1.2 model=1 kW=6.897997484512368 kvar=1.5073573946072503 Phases=1 yearly=res_kw_40_pu

New Load.load_p1ulv375_2 conn=wye bus1=p1ulv375.2 kV=0.12 Vminpu=0.8 Vmaxpu=1.2 model=1 kW=6.897997484512368 kvar=1.5073573946072503 Phases=1 yearly=res_kw_40_pu

New Load.load_p1ulv376_1 conn=wye bus1=p1ulv376.1 kV=0.12 Vminpu=0.8 Vmaxpu=1.2 model=1 kW=2.7664101287786207 kvar=0.5107617929457463 Phases=1 yearly=res_kw_116_pu

New Load.load_p1ulv376_2 conn=wye bus1=p1ulv376.2 kV=0.12 Vminpu=0.8 Vmaxpu=1.2 model=1 kW=2.7664101287786207 kvar=0.5107617929457463 Phases=1 yearly=res_kw_116_pu

New Load.load_p1ulv377_1 conn=wye bus1=p1ulv377.1 kV=0.12 Vminpu=0.8 Vmaxpu=1.2 model=1 kW=10.385223275469155 kvar=4.238948256103666 Phases=1 yearly=res_kw_146_pu

New Load.load_p1ulv377_2 conn=wye bus1=p1ulv377.2 kV=0.12 Vminpu=0.8 Vmaxpu=1.2 model=1 kW=10.385223275469155 kvar=4.238948256103666 Phases=1 yearly=res_kw_146_pu

New Load.load_p1ulv378_1 conn=wye bus1=p1ulv378.1 kV=0.12 Vminpu=0.8 Vmaxpu=1.2 model=1 kW=3.472541999699669 kvar=0.6554351791829548 Phases=1 yearly=res_kw_1054_pu

New Load.load_p1ulv378_2 conn=wye bus1=p1ulv378.2 kV=0.12 Vminpu=0.8 Vmaxpu=1.2 model=1 kW=3.472541999699669 kvar=0.6554351791829548 Phases=1 yearly=res_kw_1054_pu

New Load.load_p1ulv380_1 conn=wye bus1=p1ulv380.1 kV=0.12 Vminpu=0.8 Vmaxpu=1.2 model=1 kW=4.658663502989286 kvar=1.3388389434895354 Phases=1 yearly=res_kw_182_pu

New Load.load_p1ulv380_2 conn=wye bus1=p1ulv380.2 kV=0.12 Vminpu=0.8 Vmaxpu=1.2 model=1 kW=4.658663502989286 kvar=1.3388389434895354 Phases=1 yearly=res_kw_182_pu

New Load.load_p1ulv381_1 conn=wye bus1=p1ulv381.1 kV=0.12 Vminpu=0.8 Vmaxpu=1.2 model=1 kW=2.1376631749204993 kvar=0.6218033466021168 Phases=1 yearly=res_kw_93_pu

New Load.load_p1ulv381_2 conn=wye bus1=p1ulv381.2 kV=0.12 Vminpu=0.8 Vmaxpu=1.2 model=1 kW=2.1376631749204993 kvar=0.6218033466021168 Phases=1 yearly=res_kw_93_pu

New Load.load_p1ulv382_1 conn=wye bus1=p1ulv382.1 kV=0.12 Vminpu=0.8 Vmaxpu=1.2 model=1 kW=2.6241521841182514 kvar=0.8429304779950015 Phases=1 yearly=res_kw_33_pu

New Load.load_p1ulv382_2 conn=wye bus1=p1ulv382.2 kV=0.12 Vminpu=0.8 Vmaxpu=1.2 model=1 kW=2.6241521841182514 kvar=0.8429304779950015 Phases=1 yearly=res_kw_33_pu

New Load.load_p1ulv384_1 conn=wye bus1=p1ulv384.1 kV=0.12 Vminpu=0.8 Vmaxpu=1.2 model=1 kW=2.6241521841182514 kvar=0.8429304779950015 Phases=1 yearly=res_kw_33_pu

New Load.load_p1ulv384_2 conn=wye bus1=p1ulv384.2 kV=0.12 Vminpu=0.8 Vmaxpu=1.2 model=1 kW=2.6241521841182514 kvar=0.8429304779950015 Phases=1 yearly=res_kw_33_pu

New Load.load_p1ulv385 conn=wye bus1=p1ulv385.1.2.3 kV=0.48 Vminpu=0.8 Vmaxpu=1.2 model=1 kW=61.67019452009947 kvar=7.714241992502668 Phases=3 yearly=res_kw_1181_pu

New Load.load_p1ulv386_1 conn=wye bus1=p1ulv386.1 kV=0.12 Vminpu=0.8 Vmaxpu=1.2 model=1 kW=7.935406333880378 kvar=2.9734713630513365 Phases=1 yearly=res_kw_272_pu

New Load.load_p1ulv386_2 conn=wye bus1=p1ulv386.2 kV=0.12 Vminpu=0.8 Vmaxpu=1.2 model=1 kW=7.935406333880378 kvar=2.9734713630513365 Phases=1 yearly=res_kw_272_pu

New Load.load_p1ulv387 conn=wye bus1=p1ulv387.1.2.3 kV=0.48 Vminpu=0.8 Vmaxpu=1.2 model=1 kW=26.38984917731413 kvar=1.0281778012855651 Phases=3 yearly=res_kw_268_pu

New Load.load_p1ulv388_1 conn=wye bus1=p1ulv388.1 kV=0.12 Vminpu=0.8 Vmaxpu=1.2 model=1 kW=2.1376631749204993 kvar=0.6218033466021168 Phases=1 yearly=res_kw_93_pu

New Load.load_p1ulv388_2 conn=wye bus1=p1ulv388.2 kV=0.12 Vminpu=0.8 Vmaxpu=1.2 model=1 kW=2.1376631749204993 kvar=0.6218033466021168 Phases=1 yearly=res_kw_93_pu

New Load.load_p1ulv389_1 conn=wye bus1=p1ulv389.1 kV=0.12 Vminpu=0.8 Vmaxpu=1.2 model=1 kW=2.9178485115923896 kvar=1.0715119122844614 Phases=1 yearly=res_kw_1149_pu

New Load.load_p1ulv389_2 conn=wye bus1=p1ulv389.2 kV=0.12 Vminpu=0.8 Vmaxpu=1.2 model=1 kW=2.9178485115923896 kvar=1.0715119122844614 Phases=1 yearly=res_kw_1149_pu

New Load.load_p1ulv390_1 conn=wye bus1=p1ulv390.1 kV=0.12 Vminpu=0.8 Vmaxpu=1.2 model=1 kW=1.8636614682402992 kvar=0.5015179682387616 Phases=1 yearly=res_kw_532_pu

New Load.load_p1ulv390_2 conn=wye bus1=p1ulv390.2 kV=0.12 Vminpu=0.8 Vmaxpu=1.2 model=1 kW=1.8636614682402992 kvar=0.5015179682387616 Phases=1 yearly=res_kw_532_pu

New Load.load_p1ulv394 conn=wye bus1=p1ulv394.1.2.3 kV=0.48 Vminpu=0.8 Vmaxpu=1.2 model=1 kW=66.23050086819268 kvar=27.496709792174762 Phases=3 yearly=com_kw_12982_pu

New Load.load_p1ulv395 conn=wye bus1=p1ulv395.1.2.3 kV=0.48 Vminpu=0.8 Vmaxpu=1.2 model=1 kW=43.69867821620363 kvar=6.177113536060882 Phases=3 yearly=com_kw_13196_pu

New Load.load_p1ulv397_1 conn=wye bus1=p1ulv397.1 kV=0.12 Vminpu=0.8 Vmaxpu=1.2 model=1 kW=2.067648239246198 kvar=0.5822879156961851 Phases=1 yearly=com_kw_14772_pu

New Load.load_p1ulv397_2 conn=wye bus1=p1ulv397.2 kV=0.12 Vminpu=0.8 Vmaxpu=1.2 model=1 kW=2.067648239246198 kvar=0.5822879156961851 Phases=1 yearly=com_kw_14772_pu

New Load.load_p1ulv400 conn=wye bus1=p1ulv400.1.2.3 kV=0.48 Vminpu=0.8 Vmaxpu=1.2 model=1 kW=46.53832411173154 kvar=14.683773945259533 Phases=3 yearly=com_kw_14369_pu

New Load.load_p1ulv3703_1 conn=wye bus1=p1ulv3703.1 kV=0.12 Vminpu=0.8 Vmaxpu=1.2 model=1 kW=4.857616015471129 kvar=0.2397306111492685 Phases=1 yearly=com_kw_14883_pu

New Load.load_p1ulv3703_2 conn=wye bus1=p1ulv3703.2 kV=0.12 Vminpu=0.8 Vmaxpu=1.2 model=1 kW=4.857616015471129 kvar=0.2397306111492685 Phases=1 yearly=com_kw_14883_pu

New Load.load_p1ulv3704_1 conn=wye bus1=p1ulv3704.1 kV=0.12 Vminpu=0.8 Vmaxpu=1.2 model=1 kW=5.073052946727468 kvar=0.334720435390571 Phases=1 yearly=com_kw_14872_pu

New Load.load_p1ulv3704_2 conn=wye bus1=p1ulv3704.2 kV=0.12 Vminpu=0.8 Vmaxpu=1.2 model=1 kW=5.073052946727468 kvar=0.334720435390571 Phases=1 yearly=com_kw_14872_pu

New Load.load_p1ulv3705_1 conn=wye bus1=p1ulv3705.1 kV=0.12 Vminpu=0.8 Vmaxpu=1.2 model=1 kW=1.8914832317680952 kvar=0.4701288429802831 Phases=1 yearly=com_kw_13018_pu

New Load.load_p1ulv3705_2 conn=wye bus1=p1ulv3705.2 kV=0.12 Vminpu=0.8 Vmaxpu=1.2 model=1 kW=1.8914832317680952 kvar=0.4701288429802831 Phases=1 yearly=com_kw_13018_pu

New Load.load_p1ulv3706_1 conn=wye bus1=p1ulv3706.1 kV=0.12 Vminpu=0.8 Vmaxpu=1.2 model=1 kW=2.0380250144225394 kvar=0.5847764991219453 Phases=1 yearly=com_kw_15124_pu

New Load.load_p1ulv3706_2 conn=wye bus1=p1ulv3706.2 kV=0.12 Vminpu=0.8 Vmaxpu=1.2 model=1 kW=2.0380250144225394 kvar=0.5847764991219453 Phases=1 yearly=com_kw_15124_pu

New Load.load_p1ulv3707_1 conn=wye bus1=p1ulv3707.1 kV=0.12 Vminpu=0.8 Vmaxpu=1.2 model=1 kW=1.8914832317680952 kvar=0.4701288429802831 Phases=1 yearly=com_kw_13018_pu

New Load.load_p1ulv3707_2 conn=wye bus1=p1ulv3707.2 kV=0.12 Vminpu=0.8 Vmaxpu=1.2 model=1 kW=1.8914832317680952 kvar=0.4701288429802831 Phases=1 yearly=com_kw_13018_pu

New Load.load_p1ulv3708_1 conn=wye bus1=p1ulv3707.1 kV=0.12 Vminpu=0.8 Vmaxpu=1.2 model=1 kW=2.067648239246198 kvar=0.5822879156961851 Phases=1 yearly=com_kw_14772_pu

New Load.load_p1ulv3708_2 conn=wye bus1=p1ulv3707.2 kV=0.12 Vminpu=0.8 Vmaxpu=1.2 model=1 kW=2.067648239246198 kvar=0.5822879156961851 Phases=1 yearly=com_kw_14772_pu

New Load.load_p1ulv3709_1 conn=wye bus1=p1ulv3709.1 kV=0.12 Vminpu=0.8 Vmaxpu=1.2 model=1 kW=5.096065176353652 kvar=0.20326988307277757 Phases=1 yearly=com_kw_14723_pu

New Load.load_p1ulv3709_2 conn=wye bus1=p1ulv3709.2 kV=0.12 Vminpu=0.8 Vmaxpu=1.2 model=1 kW=5.096065176353652 kvar=0.20326988307277757 Phases=1 yearly=com_kw_14723_pu

New Load.load_p1ulv3710_1 conn=wye bus1=p1ulv3710.1 kV=0.12 Vminpu=0.8 Vmaxpu=1.2 model=1 kW=1.8914832317680952 kvar=0.4701288429802831 Phases=1 yearly=com_kw_13018_pu

New Load.load_p1ulv3710_2 conn=wye bus1=p1ulv3710.2 kV=0.12 Vminpu=0.8 Vmaxpu=1.2 model=1 kW=1.8914832317680952 kvar=0.4701288429802831 Phases=1 yearly=com_kw_13018_pu

New Load.load_p1ulv3711_1 conn=wye bus1=p1ulv3711.1 kV=0.12 Vminpu=0.8 Vmaxpu=1.2 model=1 kW=4.642179748908938 kvar=0.176462268654847 Phases=1 yearly=com_kw_15157_pu

New Load.load_p1ulv3711_2 conn=wye bus1=p1ulv3711.2 kV=0.12 Vminpu=0.8 Vmaxpu=1.2 model=1 kW=4.642179748908938 kvar=0.176462268654847 Phases=1 yearly=com_kw_15157_pu

New Load.load_p1ulv3712_1 conn=wye bus1=p1ulv3712.1 kV=0.12 Vminpu=0.8 Vmaxpu=1.2 model=1 kW=4.317921618919005 kvar=0.17704568465273218 Phases=1 yearly=com_kw_12941_pu

New Load.load_p1ulv3712_2 conn=wye bus1=p1ulv3712.2 kV=0.12 Vminpu=0.8 Vmaxpu=1.2 model=1 kW=4.317921618919005 kvar=0.17704568465273218 Phases=1 yearly=com_kw_12941_pu

New Load.load_p1ulv3713_1 conn=wye bus1=p1ulv3713.1 kV=0.12 Vminpu=0.8 Vmaxpu=1.2 model=1 kW=3.2230723959373018 kvar=0.13338129174872024 Phases=1 yearly=com_kw_14257_pu

New Load.load_p1ulv3713_2 conn=wye bus1=p1ulv3713.2 kV=0.12 Vminpu=0.8 Vmaxpu=1.2 model=1 kW=3.2230723959373018 kvar=0.13338129174872024 Phases=1 yearly=com_kw_14257_pu

New Load.load_p1ulv3714_1 conn=wye bus1=p1ulv3714.1 kV=0.12 Vminpu=0.8 Vmaxpu=1.2 model=1 kW=5.096065176353652 kvar=0.20326988307277757 Phases=1 yearly=com_kw_14723_pu

New Load.load_p1ulv3714_2 conn=wye bus1=p1ulv3714.2 kV=0.12 Vminpu=0.8 Vmaxpu=1.2 model=1 kW=5.096065176353652 kvar=0.20326988307277757 Phases=1 yearly=com_kw_14723_pu

New Load.load_p1ulv3715_1 conn=wye bus1=p1ulv3715.1 kV=0.12 Vminpu=0.8 Vmaxpu=1.2 model=1 kW=5.503617962261267 kvar=0.25931014748492 Phases=1 yearly=com_kw_14123_pu

New Load.load_p1ulv3715_2 conn=wye bus1=p1ulv3715.2 kV=0.12 Vminpu=0.8 Vmaxpu=1.2 model=1 kW=5.503617962261267 kvar=0.25931014748492 Phases=1 yearly=com_kw_14123_pu

New Load.load_p1ulv3716_1 conn=wye bus1=p1ulv3716.1 kV=0.12 Vminpu=0.8 Vmaxpu=1.2 model=1 kW=2.465496051676302 kvar=0.5881407747231531 Phases=1 yearly=com_kw_13121_pu

New Load.load_p1ulv3716_2 conn=wye bus1=p1ulv3716.2 kV=0.12 Vminpu=0.8 Vmaxpu=1.2 model=1 kW=2.465496051676302 kvar=0.5881407747231531 Phases=1 yearly=com_kw_13121_pu

New Load.load_p1ulv3717_1 conn=wye bus1=p1ulv3717.1 kV=0.12 Vminpu=0.8 Vmaxpu=1.2 model=1 kW=7.93049382572733 kvar=0.16129015048142953 Phases=1 yearly=com_kw_14549_pu

New Load.load_p1ulv3717_2 conn=wye bus1=p1ulv3717.2 kV=0.12 Vminpu=0.8 Vmaxpu=1.2 model=1 kW=7.93049382572733 kvar=0.16129015048142953 Phases=1 yearly=com_kw_14549_pu

New Load.load_p1ulv3718_1 conn=wye bus1=p1ulv3718.1 kV=0.12 Vminpu=0.8 Vmaxpu=1.2 model=1 kW=1.8801200674575587 kvar=0.53962653273889 Phases=1 yearly=com_kw_13578_pu

New Load.load_p1ulv3718_2 conn=wye bus1=p1ulv3718.2 kV=0.12 Vminpu=0.8 Vmaxpu=1.2 model=1 kW=1.8801200674575587 kvar=0.53962653273889 Phases=1 yearly=com_kw_13578_pu

New Load.load_p1ulv3719_1 conn=wye bus1=p1ulv3719.1 kV=0.12 Vminpu=0.8 Vmaxpu=1.2 model=1 kW=1.8413982632457628 kvar=0.4913074890993267 Phases=1 yearly=com_kw_13875_pu

New Load.load_p1ulv3719_2 conn=wye bus1=p1ulv3719.2 kV=0.12 Vminpu=0.8 Vmaxpu=1.2 model=1 kW=1.8413982632457628 kvar=0.4913074890993267 Phases=1 yearly=com_kw_13875_pu

New Load.load_p1ulv3720_1 conn=wye bus1=p1ulv3720.1 kV=0.12 Vminpu=0.8 Vmaxpu=1.2 model=1 kW=5.096065176353652 kvar=0.20326988307277757 Phases=1 yearly=com_kw_14723_pu

New Load.load_p1ulv3720_2 conn=wye bus1=p1ulv3720.2 kV=0.12 Vminpu=0.8 Vmaxpu=1.2 model=1 kW=5.096065176353652 kvar=0.20326988307277757 Phases=1 yearly=com_kw_14723_pu

New Load.load_p1ulv3721_1 conn=wye bus1=p1ulv3721.1 kV=0.12 Vminpu=0.8 Vmaxpu=1.2 model=1 kW=1.8914832317680952 kvar=0.4701288429802831 Phases=1 yearly=com_kw_13018_pu

New Load.load_p1ulv3721_2 conn=wye bus1=p1ulv3721.2 kV=0.12 Vminpu=0.8 Vmaxpu=1.2 model=1 kW=1.8914832317680952 kvar=0.4701288429802831 Phases=1 yearly=com_kw_13018_pu

New Load.load_p1ulv3722_1 conn=wye bus1=p1ulv3722.1 kV=0.12 Vminpu=0.8 Vmaxpu=1.2 model=1 kW=1.8914832317680952 kvar=0.4701288429802831 Phases=1 yearly=com_kw_13018_pu

New Load.load_p1ulv3722_2 conn=wye bus1=p1ulv3722.2 kV=0.12 Vminpu=0.8 Vmaxpu=1.2 model=1 kW=1.8914832317680952 kvar=0.4701288429802831 Phases=1 yearly=com_kw_13018_pu

New Load.load_p1ulv3723_1 conn=wye bus1=p1ulv3722.1 kV=0.12 Vminpu=0.8 Vmaxpu=1.2 model=1 kW=1.8914832317680952 kvar=0.4701288429802831 Phases=1 yearly=com_kw_13018_pu

New Load.load_p1ulv3723_2 conn=wye bus1=p1ulv3722.2 kV=0.12 Vminpu=0.8 Vmaxpu=1.2 model=1 kW=1.8914832317680952 kvar=0.4701288429802831 Phases=1 yearly=com_kw_13018_pu

New Load.load_p1ulv3724_1 conn=wye bus1=p1ulv3724.1 kV=0.12 Vminpu=0.8 Vmaxpu=1.2 model=1 kW=3.2230723959373018 kvar=0.13338129174872024 Phases=1 yearly=com_kw_14257_pu

New Load.load_p1ulv3724_2 conn=wye bus1=p1ulv3724.2 kV=0.12 Vminpu=0.8 Vmaxpu=1.2 model=1 kW=3.2230723959373018 kvar=0.13338129174872024 Phases=1 yearly=com_kw_14257_pu

New Load.load_p1ulv3725_1 conn=wye bus1=p1ulv3725.1 kV=0.12 Vminpu=0.8 Vmaxpu=1.2 model=1 kW=1.8914832317680952 kvar=0.4701288429802831 Phases=1 yearly=com_kw_13018_pu

New Load.load_p1ulv3725_2 conn=wye bus1=p1ulv3725.2 kV=0.12 Vminpu=0.8 Vmaxpu=1.2 model=1 kW=1.8914832317680952 kvar=0.4701288429802831 Phases=1 yearly=com_kw_13018_pu

New Load.load_p1ulv3726_1 conn=wye bus1=p1ulv3726.1 kV=0.12 Vminpu=0.8 Vmaxpu=1.2 model=1 kW=1.8914832317680952 kvar=0.4701288429802831 Phases=1 yearly=com_kw_13018_pu

New Load.load_p1ulv3726_2 conn=wye bus1=p1ulv3726.2 kV=0.12 Vminpu=0.8 Vmaxpu=1.2 model=1 kW=1.8914832317680952 kvar=0.4701288429802831 Phases=1 yearly=com_kw_13018_pu

New Load.load_p1ulv3727_1 conn=wye bus1=p1ulv3727.1 kV=0.12 Vminpu=0.8 Vmaxpu=1.2 model=1 kW=2.3846609446068823 kvar=0.7423017332736356 Phases=1 yearly=com_kw_14117_pu

New Load.load_p1ulv3727_2 conn=wye bus1=p1ulv3727.2 kV=0.12 Vminpu=0.8 Vmaxpu=1.2 model=1 kW=2.3846609446068823 kvar=0.7423017332736356 Phases=1 yearly=com_kw_14117_pu

New Load.load_p1ulv3728_1 conn=wye bus1=p1ulv3728.1 kV=0.12 Vminpu=0.8 Vmaxpu=1.2 model=1 kW=1.8914832317680952 kvar=0.4701288429802831 Phases=1 yearly=com_kw_13018_pu

New Load.load_p1ulv3728_2 conn=wye bus1=p1ulv3728.2 kV=0.12 Vminpu=0.8 Vmaxpu=1.2 model=1 kW=1.8914832317680952 kvar=0.4701288429802831 Phases=1 yearly=com_kw_13018_pu

New Load.load_p1ulv3729_1 conn=wye bus1=p1ulv3729.1 kV=0.12 Vminpu=0.8 Vmaxpu=1.2 model=1 kW=7.93049382572733 kvar=0.16129015048142953 Phases=1 yearly=com_kw_14549_pu

New Load.load_p1ulv3729_2 conn=wye bus1=p1ulv3729.2 kV=0.12 Vminpu=0.8 Vmaxpu=1.2 model=1 kW=7.93049382572733 kvar=0.16129015048142953 Phases=1 yearly=com_kw_14549_pu

New Load.load_p1ulv3730_1 conn=wye bus1=p1ulv3730.1 kV=0.12 Vminpu=0.8 Vmaxpu=1.2 model=1 kW=1.8914832317680952 kvar=0.4701288429802831 Phases=1 yearly=com_kw_13018_pu

New Load.load_p1ulv3730_2 conn=wye bus1=p1ulv3730.2 kV=0.12 Vminpu=0.8 Vmaxpu=1.2 model=1 kW=1.8914832317680952 kvar=0.4701288429802831 Phases=1 yearly=com_kw_13018_pu

New Load.load_p1ulv3731_1 conn=wye bus1=p1ulv3727.1 kV=0.12 Vminpu=0.8 Vmaxpu=1.2 model=1 kW=3.2230723959373018 kvar=0.13338129174872024 Phases=1 yearly=com_kw_14257_pu

New Load.load_p1ulv3731_2 conn=wye bus1=p1ulv3727.2 kV=0.12 Vminpu=0.8 Vmaxpu=1.2 model=1 kW=3.2230723959373018 kvar=0.13338129174872024 Phases=1 yearly=com_kw_14257_pu

New Load.load_p1ulv3734_1 conn=wye bus1=p1ulv3734.1 kV=0.12 Vminpu=0.8 Vmaxpu=1.2 model=1 kW=0.17638855280953816 kvar=0.11785766630597205 Phases=1 yearly=res_kw_1229_pu

New Load.load_p1ulv3734_2 conn=wye bus1=p1ulv3734.2 kV=0.12 Vminpu=0.8 Vmaxpu=1.2 model=1 kW=0.17638855280953816 kvar=0.11785766630597205 Phases=1 yearly=res_kw_1229_pu

New Load.load_p1ulv3735_1 conn=wye bus1=p1ulv3735.1 kV=0.12 Vminpu=0.8 Vmaxpu=1.2 model=1 kW=0.17638855280953816 kvar=0.11785766630597205 Phases=1 yearly=res_kw_1229_pu

New Load.load_p1ulv3735_2 conn=wye bus1=p1ulv3735.2 kV=0.12 Vminpu=0.8 Vmaxpu=1.2 model=1 kW=0.17638855280953816 kvar=0.11785766630597205 Phases=1 yearly=res_kw_1229_pu

New Load.load_p1ulv3736_1 conn=wye bus1=p1ulv3736.1 kV=0.12 Vminpu=0.8 Vmaxpu=1.2 model=1 kW=5.777968789114468 kvar=0.5425823089827511 Phases=1 yearly=com_kw_15253_pu

New Load.load_p1ulv3736_2 conn=wye bus1=p1ulv3736.2 kV=0.12 Vminpu=0.8 Vmaxpu=1.2 model=1 kW=5.777968789114468 kvar=0.5425823089827511 Phases=1 yearly=com_kw_15253_pu

New Load.load_p1ulv3737_1 conn=wye bus1=p1ulv3737.1 kV=0.12 Vminpu=0.8 Vmaxpu=1.2 model=1 kW=5.777968789114468 kvar=0.5425823089827511 Phases=1 yearly=com_kw_15253_pu

New Load.load_p1ulv3737_2 conn=wye bus1=p1ulv3737.2 kV=0.12 Vminpu=0.8 Vmaxpu=1.2 model=1 kW=5.777968789114468 kvar=0.5425823089827511 Phases=1 yearly=com_kw_15253_pu

New Load.load_p1ulv3738_1 conn=wye bus1=p1ulv3738.1 kV=0.12 Vminpu=0.8 Vmaxpu=1.2 model=1 kW=5.777968789114468 kvar=0.5425823089827511 Phases=1 yearly=com_kw_15253_pu

New Load.load_p1ulv3738_2 conn=wye bus1=p1ulv3738.2 kV=0.12 Vminpu=0.8 Vmaxpu=1.2 model=1 kW=5.777968789114468 kvar=0.5425823089827511 Phases=1 yearly=com_kw_15253_pu

New Load.load_p1ulv3739_1 conn=wye bus1=p1ulv3739.1 kV=0.12 Vminpu=0.8 Vmaxpu=1.2 model=1 kW=5.777968789114468 kvar=0.5425823089827511 Phases=1 yearly=com_kw_15253_pu

New Load.load_p1ulv3739_2 conn=wye bus1=p1ulv3739.2 kV=0.12 Vminpu=0.8 Vmaxpu=1.2 model=1 kW=5.777968789114468 kvar=0.5425823089827511 Phases=1 yearly=com_kw_15253_pu

New Load.load_p1ulv3740_1 conn=wye bus1=p1ulv3740.1 kV=0.12 Vminpu=0.8 Vmaxpu=1.2 model=1 kW=5.777968789114468 kvar=0.5425823089827511 Phases=1 yearly=com_kw_15253_pu

New Load.load_p1ulv3740_2 conn=wye bus1=p1ulv3740.2 kV=0.12 Vminpu=0.8 Vmaxpu=1.2 model=1 kW=5.777968789114468 kvar=0.5425823089827511 Phases=1 yearly=com_kw_15253_pu

New Load.load_p1ulv3741_1 conn=wye bus1=p1ulv3741.1 kV=0.12 Vminpu=0.8 Vmaxpu=1.2 model=1 kW=4.1700386293672755 kvar=1.0653344090358647 Phases=1 yearly=com_kw_15086_pu

New Load.load_p1ulv3741_2 conn=wye bus1=p1ulv3741.2 kV=0.12 Vminpu=0.8 Vmaxpu=1.2 model=1 kW=4.1700386293672755 kvar=1.0653344090358647 Phases=1 yearly=com_kw_15086_pu

New Load.load_p1ulv3742_1 conn=wye bus1=p1ulv3742.1 kV=0.12 Vminpu=0.8 Vmaxpu=1.2 model=1 kW=5.777968789114468 kvar=0.5425823089827511 Phases=1 yearly=com_kw_15253_pu

New Load.load_p1ulv3742_2 conn=wye bus1=p1ulv3742.2 kV=0.12 Vminpu=0.8 Vmaxpu=1.2 model=1 kW=5.777968789114468 kvar=0.5425823089827511 Phases=1 yearly=com_kw_15253_pu

New Load.load_p1ulv3743_1 conn=wye bus1=p1ulv3743.1 kV=0.12 Vminpu=0.8 Vmaxpu=1.2 model=1 kW=4.1700386293672755 kvar=1.0653344090358647 Phases=1 yearly=com_kw_15086_pu

New Load.load_p1ulv3743_2 conn=wye bus1=p1ulv3743.2 kV=0.12 Vminpu=0.8 Vmaxpu=1.2 model=1 kW=4.1700386293672755 kvar=1.0653344090358647 Phases=1 yearly=com_kw_15086_pu

New Load.load_p1ulv3744_1 conn=wye bus1=p1ulv3744.1 kV=0.12 Vminpu=0.8 Vmaxpu=1.2 model=1 kW=5.777968789114468 kvar=0.5425823089827511 Phases=1 yearly=com_kw_15253_pu

New Load.load_p1ulv3744_2 conn=wye bus1=p1ulv3744.2 kV=0.12 Vminpu=0.8 Vmaxpu=1.2 model=1 kW=5.777968789114468 kvar=0.5425823089827511 Phases=1 yearly=com_kw_15253_pu

New Load.load_p1ulv3745_1 conn=wye bus1=p1ulv3745.1 kV=0.12 Vminpu=0.8 Vmaxpu=1.2 model=1 kW=5.777968789114468 kvar=0.5425823089827511 Phases=1 yearly=com_kw_15253_pu

New Load.load_p1ulv3745_2 conn=wye bus1=p1ulv3745.2 kV=0.12 Vminpu=0.8 Vmaxpu=1.2 model=1 kW=5.777968789114468 kvar=0.5425823089827511 Phases=1 yearly=com_kw_15253_pu

New Load.load_p1ulv3746_1 conn=wye bus1=p1ulv3746.1 kV=0.12 Vminpu=0.8 Vmaxpu=1.2 model=1 kW=5.777968789114468 kvar=0.5425823089827511 Phases=1 yearly=com_kw_15253_pu

New Load.load_p1ulv3746_2 conn=wye bus1=p1ulv3746.2 kV=0.12 Vminpu=0.8 Vmaxpu=1.2 model=1 kW=5.777968789114468 kvar=0.5425823089827511 Phases=1 yearly=com_kw_15253_pu

New Load.load_p1ulv3747_1 conn=wye bus1=p1ulv3746.1 kV=0.12 Vminpu=0.8 Vmaxpu=1.2 model=1 kW=5.777968789114468 kvar=0.5425823089827511 Phases=1 yearly=com_kw_15253_pu

New Load.load_p1ulv3747_2 conn=wye bus1=p1ulv3746.2 kV=0.12 Vminpu=0.8 Vmaxpu=1.2 model=1 kW=5.777968789114468 kvar=0.5425823089827511 Phases=1 yearly=com_kw_15253_pu

New Load.load_p1ulv3748_1 conn=wye bus1=p1ulv3748.1 kV=0.12 Vminpu=0.8 Vmaxpu=1.2 model=1 kW=5.777968789114468 kvar=0.5425823089827511 Phases=1 yearly=com_kw_15253_pu

New Load.load_p1ulv3748_2 conn=wye bus1=p1ulv3748.2 kV=0.12 Vminpu=0.8 Vmaxpu=1.2 model=1 kW=5.777968789114468 kvar=0.5425823089827511 Phases=1 yearly=com_kw_15253_pu

New Load.load_p1ulv3749_1 conn=wye bus1=p1ulv3748.1 kV=0.12 Vminpu=0.8 Vmaxpu=1.2 model=1 kW=5.777968789114468 kvar=0.5425823089827511 Phases=1 yearly=com_kw_15253_pu

New Load.load_p1ulv3749_2 conn=wye bus1=p1ulv3748.2 kV=0.12 Vminpu=0.8 Vmaxpu=1.2 model=1 kW=5.777968789114468 kvar=0.5425823089827511 Phases=1 yearly=com_kw_15253_pu

New Load.load_p1ulv3750_1 conn=wye bus1=p1ulv3750.1 kV=0.12 Vminpu=0.8 Vmaxpu=1.2 model=1 kW=5.777968789114468 kvar=0.5425823089827511 Phases=1 yearly=com_kw_15253_pu

New Load.load_p1ulv3750_2 conn=wye bus1=p1ulv3750.2 kV=0.12 Vminpu=0.8 Vmaxpu=1.2 model=1 kW=5.777968789114468 kvar=0.5425823089827511 Phases=1 yearly=com_kw_15253_pu

New Load.load_p1ulv3751_1 conn=wye bus1=p1ulv3751.1 kV=0.12 Vminpu=0.8 Vmaxpu=1.2 model=1 kW=5.777968789114468 kvar=0.5425823089827511 Phases=1 yearly=com_kw_15253_pu

New Load.load_p1ulv3751_2 conn=wye bus1=p1ulv3751.2 kV=0.12 Vminpu=0.8 Vmaxpu=1.2 model=1 kW=5.777968789114468 kvar=0.5425823089827511 Phases=1 yearly=com_kw_15253_pu

New Load.load_p1ulv3752_1 conn=wye bus1=p1ulv3752.1 kV=0.12 Vminpu=0.8 Vmaxpu=1.2 model=1 kW=5.777968789114468 kvar=0.5425823089827511 Phases=1 yearly=com_kw_15253_pu

New Load.load_p1ulv3752_2 conn=wye bus1=p1ulv3752.2 kV=0.12 Vminpu=0.8 Vmaxpu=1.2 model=1 kW=5.777968789114468 kvar=0.5425823089827511 Phases=1 yearly=com_kw_15253_pu

New Load.load_p1ulv3753_1 conn=wye bus1=p1ulv3753.1 kV=0.12 Vminpu=0.8 Vmaxpu=1.2 model=1 kW=9.484346446725981 kvar=0.4751538818991885 Phases=1 yearly=com_kw_14518_pu

New Load.load_p1ulv3753_2 conn=wye bus1=p1ulv3753.2 kV=0.12 Vminpu=0.8 Vmaxpu=1.2 model=1 kW=9.484346446725981 kvar=0.4751538818991885 Phases=1 yearly=com_kw_14518_pu

New Load.load_p1ulv3754_1 conn=wye bus1=p1ulv3754.1 kV=0.12 Vminpu=0.8 Vmaxpu=1.2 model=1 kW=3.146048361674957 kvar=1.0127233043446469 Phases=1 yearly=com_kw_14498_pu

New Load.load_p1ulv3754_2 conn=wye bus1=p1ulv3754.2 kV=0.12 Vminpu=0.8 Vmaxpu=1.2 model=1 kW=3.146048361674957 kvar=1.0127233043446469 Phases=1 yearly=com_kw_14498_pu

New Load.load_p1ulv3755_1 conn=wye bus1=p1ulv3755.1 kV=0.12 Vminpu=0.8 Vmaxpu=1.2 model=1 kW=5.777968789114468 kvar=0.5425823089827511 Phases=1 yearly=com_kw_15253_pu

New Load.load_p1ulv3755_2 conn=wye bus1=p1ulv3755.2 kV=0.12 Vminpu=0.8 Vmaxpu=1.2 model=1 kW=5.777968789114468 kvar=0.5425823089827511 Phases=1 yearly=com_kw_15253_pu

New Load.load_p1ulv3756_1 conn=wye bus1=p1ulv3756.1 kV=0.12 Vminpu=0.8 Vmaxpu=1.2 model=1 kW=9.484346446725981 kvar=0.4751538818991885 Phases=1 yearly=com_kw_14518_pu

New Load.load_p1ulv3756_2 conn=wye bus1=p1ulv3756.2 kV=0.12 Vminpu=0.8 Vmaxpu=1.2 model=1 kW=9.484346446725981 kvar=0.4751538818991885 Phases=1 yearly=com_kw_14518_pu

New Load.load_p1ulv3757_1 conn=wye bus1=p1ulv3757.1 kV=0.12 Vminpu=0.8 Vmaxpu=1.2 model=1 kW=5.777968789114468 kvar=0.5425823089827511 Phases=1 yearly=com_kw_15253_pu

New Load.load_p1ulv3757_2 conn=wye bus1=p1ulv3757.2 kV=0.12 Vminpu=0.8 Vmaxpu=1.2 model=1 kW=5.777968789114468 kvar=0.5425823089827511 Phases=1 yearly=com_kw_15253_pu

New Load.load_p1ulv3758_1 conn=wye bus1=p1ulv3758.1 kV=0.12 Vminpu=0.8 Vmaxpu=1.2 model=1 kW=4.1700386293672755 kvar=1.0653344090358647 Phases=1 yearly=com_kw_15086_pu

New Load.load_p1ulv3758_2 conn=wye bus1=p1ulv3758.2 kV=0.12 Vminpu=0.8 Vmaxpu=1.2 model=1 kW=4.1700386293672755 kvar=1.0653344090358647 Phases=1 yearly=com_kw_15086_pu
