New Load.load_p1ulv6201_1 conn=wye bus1=p1ulv6201.1 kV=0.12 Vminpu=0.8 Vmaxpu=1.2 model=1 kW=9.591249211904968 kvar=2.0347748075499026 Phases=1 yearly=res_kw_319_pu

New Load.load_p1ulv6201_2 conn=wye bus1=p1ulv6201.2 kV=0.12 Vminpu=0.8 Vmaxpu=1.2 model=1 kW=9.591249211904968 kvar=2.0347748075499026 Phases=1 yearly=res_kw_319_pu

New Load.load_p1ulv6202_1 conn=wye bus1=p1ulv6202.1 kV=0.12 Vminpu=0.8 Vmaxpu=1.2 model=1 kW=6.484825325204597 kvar=1.6440419394084307 Phases=1 yearly=res_kw_1115_pu

New Load.load_p1ulv6202_2 conn=wye bus1=p1ulv6202.2 kV=0.12 Vminpu=0.8 Vmaxpu=1.2 model=1 kW=6.484825325204597 kvar=1.6440419394084307 Phases=1 yearly=res_kw_1115_pu

New Load.load_p1ulv6203_1 conn=wye bus1=p1ulv6203.1 kV=0.12 Vminpu=0.8 Vmaxpu=1.2 model=1 kW=5.675346369339635 kvar=1.238985226090579 Phases=1 yearly=res_kw_1186_pu

New Load.load_p1ulv6203_2 conn=wye bus1=p1ulv6203.2 kV=0.12 Vminpu=0.8 Vmaxpu=1.2 model=1 kW=5.675346369339635 kvar=1.238985226090579 Phases=1 yearly=res_kw_1186_pu

New Load.load_p1ulv6204_1 conn=wye bus1=p1ulv6204.1 kV=0.12 Vminpu=0.8 Vmaxpu=1.2 model=1 kW=1.8618983584330409 kvar=0.7337589993741062 Phases=1 yearly=res_kw_141_pu

New Load.load_p1ulv6204_2 conn=wye bus1=p1ulv6204.2 kV=0.12 Vminpu=0.8 Vmaxpu=1.2 model=1 kW=1.8618983584330409 kvar=0.7337589993741062 Phases=1 yearly=res_kw_141_pu

New Load.load_p1ulv6205_1 conn=wye bus1=p1ulv6205.1 kV=0.12 Vminpu=0.8 Vmaxpu=1.2 model=1 kW=2.623267981089487 kvar=1.212519304398851 Phases=1 yearly=res_kw_452_pu

New Load.load_p1ulv6205_2 conn=wye bus1=p1ulv6205.2 kV=0.12 Vminpu=0.8 Vmaxpu=1.2 model=1 kW=2.623267981089487 kvar=1.212519304398851 Phases=1 yearly=res_kw_452_pu

New Load.load_p1ulv6206_1 conn=wye bus1=p1ulv6206.1 kV=0.12 Vminpu=0.8 Vmaxpu=1.2 model=1 kW=2.605021030189827 kvar=1.0007509371876184 Phases=1 yearly=res_kw_24_pu

New Load.load_p1ulv6206_2 conn=wye bus1=p1ulv6206.2 kV=0.12 Vminpu=0.8 Vmaxpu=1.2 model=1 kW=2.605021030189827 kvar=1.0007509371876184 Phases=1 yearly=res_kw_24_pu

New Load.load_p1ulv6207_1 conn=wye bus1=p1ulv6207.1 kV=0.12 Vminpu=0.8 Vmaxpu=1.2 model=1 kW=2.6241521841182514 kvar=0.8429304779950015 Phases=1 yearly=res_kw_33_pu

New Load.load_p1ulv6207_2 conn=wye bus1=p1ulv6207.2 kV=0.12 Vminpu=0.8 Vmaxpu=1.2 model=1 kW=2.6241521841182514 kvar=0.8429304779950015 Phases=1 yearly=res_kw_33_pu

New Load.load_p1ulv6208_1 conn=wye bus1=p1ulv6208.1 kV=0.12 Vminpu=0.8 Vmaxpu=1.2 model=1 kW=2.6241521841182514 kvar=0.8429304779950015 Phases=1 yearly=res_kw_33_pu

New Load.load_p1ulv6208_2 conn=wye bus1=p1ulv6208.2 kV=0.12 Vminpu=0.8 Vmaxpu=1.2 model=1 kW=2.6241521841182514 kvar=0.8429304779950015 Phases=1 yearly=res_kw_33_pu

New Load.load_p1ulv6209_1 conn=wye bus1=p1ulv6209.1 kV=0.12 Vminpu=0.8 Vmaxpu=1.2 model=1 kW=2.605021030189827 kvar=1.0007509371876184 Phases=1 yearly=res_kw_24_pu

New Load.load_p1ulv6209_2 conn=wye bus1=p1ulv6209.2 kV=0.12 Vminpu=0.8 Vmaxpu=1.2 model=1 kW=2.605021030189827 kvar=1.0007509371876184 Phases=1 yearly=res_kw_24_pu

New Load.load_p1ulv6210_1 conn=wye bus1=p1ulv6210.1 kV=0.12 Vminpu=0.8 Vmaxpu=1.2 model=1 kW=1.8618983584330409 kvar=0.7337589993741062 Phases=1 yearly=res_kw_141_pu

New Load.load_p1ulv6210_2 conn=wye bus1=p1ulv6210.2 kV=0.12 Vminpu=0.8 Vmaxpu=1.2 model=1 kW=1.8618983584330409 kvar=0.7337589993741062 Phases=1 yearly=res_kw_141_pu

New Load.load_p1ulv6211_1 conn=wye bus1=p1ulv6210.1 kV=0.12 Vminpu=0.8 Vmaxpu=1.2 model=1 kW=2.623267981089487 kvar=1.212519304398851 Phases=1 yearly=res_kw_452_pu

New Load.load_p1ulv6211_2 conn=wye bus1=p1ulv6210.2 kV=0.12 Vminpu=0.8 Vmaxpu=1.2 model=1 kW=2.623267981089487 kvar=1.212519304398851 Phases=1 yearly=res_kw_452_pu

New Load.load_p1ulv6212_1 conn=wye bus1=p1ulv6212.1 kV=0.12 Vminpu=0.8 Vmaxpu=1.2 model=1 kW=8.04422437787292 kvar=1.3373848866311981 Phases=1 yearly=res_kw_695_pu

New Load.load_p1ulv6212_2 conn=wye bus1=p1ulv6212.2 kV=0.12 Vminpu=0.8 Vmaxpu=1.2 model=1 kW=8.04422437787292 kvar=1.3373848866311981 Phases=1 yearly=res_kw_695_pu

New Load.load_p1ulv6213_1 conn=wye bus1=p1ulv6212.1 kV=0.12 Vminpu=0.8 Vmaxpu=1.2 model=1 kW=3.789884331965197 kvar=1.0036576715582408 Phases=1 yearly=res_kw_670_pu

New Load.load_p1ulv6213_2 conn=wye bus1=p1ulv6212.2 kV=0.12 Vminpu=0.8 Vmaxpu=1.2 model=1 kW=3.789884331965197 kvar=1.0036576715582408 Phases=1 yearly=res_kw_670_pu

New Load.load_p1ulv6214_1 conn=wye bus1=p1ulv6214.1 kV=0.12 Vminpu=0.8 Vmaxpu=1.2 model=1 kW=2.605021030189827 kvar=1.0007509371876184 Phases=1 yearly=res_kw_24_pu

New Load.load_p1ulv6214_2 conn=wye bus1=p1ulv6214.2 kV=0.12 Vminpu=0.8 Vmaxpu=1.2 model=1 kW=2.605021030189827 kvar=1.0007509371876184 Phases=1 yearly=res_kw_24_pu

New Load.load_p1ulv6215_1 conn=wye bus1=p1ulv6215.1 kV=0.12 Vminpu=0.8 Vmaxpu=1.2 model=1 kW=2.1376631749204993 kvar=0.6218033466021168 Phases=1 yearly=res_kw_93_pu

New Load.load_p1ulv6215_2 conn=wye bus1=p1ulv6215.2 kV=0.12 Vminpu=0.8 Vmaxpu=1.2 model=1 kW=2.1376631749204993 kvar=0.6218033466021168 Phases=1 yearly=res_kw_93_pu

New Load.load_p1ulv6216_1 conn=wye bus1=p1ulv6216.1 kV=0.12 Vminpu=0.8 Vmaxpu=1.2 model=1 kW=1.6746299650392789 kvar=0.594727774010976 Phases=1 yearly=res_kw_1276_pu

New Load.load_p1ulv6216_2 conn=wye bus1=p1ulv6216.2 kV=0.12 Vminpu=0.8 Vmaxpu=1.2 model=1 kW=1.6746299650392789 kvar=0.594727774010976 Phases=1 yearly=res_kw_1276_pu

New Load.load_p1ulv6217_1 conn=wye bus1=p1ulv6217.1 kV=0.12 Vminpu=0.8 Vmaxpu=1.2 model=1 kW=1.7932717143582468 kvar=0.4137486634368157 Phases=1 yearly=res_kw_931_pu

New Load.load_p1ulv6217_2 conn=wye bus1=p1ulv6217.2 kV=0.12 Vminpu=0.8 Vmaxpu=1.2 model=1 kW=1.7932717143582468 kvar=0.4137486634368157 Phases=1 yearly=res_kw_931_pu

New Load.load_p1ulv6218_1 conn=wye bus1=p1ulv6218.1 kV=0.12 Vminpu=0.8 Vmaxpu=1.2 model=1 kW=2.623267981089487 kvar=1.212519304398851 Phases=1 yearly=res_kw_452_pu

New Load.load_p1ulv6218_2 conn=wye bus1=p1ulv6218.2 kV=0.12 Vminpu=0.8 Vmaxpu=1.2 model=1 kW=2.623267981089487 kvar=1.212519304398851 Phases=1 yearly=res_kw_452_pu

New Load.load_p1ulv6219_1 conn=wye bus1=p1ulv6219.1 kV=0.12 Vminpu=0.8 Vmaxpu=1.2 model=1 kW=2.605021030189827 kvar=1.0007509371876184 Phases=1 yearly=res_kw_24_pu

New Load.load_p1ulv6219_2 conn=wye bus1=p1ulv6219.2 kV=0.12 Vminpu=0.8 Vmaxpu=1.2 model=1 kW=2.605021030189827 kvar=1.0007509371876184 Phases=1 yearly=res_kw_24_pu

New Load.load_p1ulv6220_1 conn=wye bus1=p1ulv6220.1 kV=0.12 Vminpu=0.8 Vmaxpu=1.2 model=1 kW=3.4468581914223817 kvar=1.1411197390818253 Phases=1 yearly=res_kw_250_pu

New Load.load_p1ulv6220_2 conn=wye bus1=p1ulv6220.2 kV=0.12 Vminpu=0.8 Vmaxpu=1.2 model=1 kW=3.4468581914223817 kvar=1.1411197390818253 Phases=1 yearly=res_kw_250_pu

New Load.load_p1ulv6221_1 conn=wye bus1=p1ulv6220.1 kV=0.12 Vminpu=0.8 Vmaxpu=1.2 model=1 kW=2.605021030189827 kvar=1.0007509371876184 Phases=1 yearly=res_kw_24_pu

New Load.load_p1ulv6221_2 conn=wye bus1=p1ulv6220.2 kV=0.12 Vminpu=0.8 Vmaxpu=1.2 model=1 kW=2.605021030189827 kvar=1.0007509371876184 Phases=1 yearly=res_kw_24_pu

New Load.load_p1ulv6222_1 conn=wye bus1=p1ulv6222.1 kV=0.12 Vminpu=0.8 Vmaxpu=1.2 model=1 kW=2.1376631749204993 kvar=0.6218033466021168 Phases=1 yearly=res_kw_93_pu

New Load.load_p1ulv6222_2 conn=wye bus1=p1ulv6222.2 kV=0.12 Vminpu=0.8 Vmaxpu=1.2 model=1 kW=2.1376631749204993 kvar=0.6218033466021168 Phases=1 yearly=res_kw_93_pu

New Load.load_p1ulv6223_1 conn=wye bus1=p1ulv6223.1 kV=0.12 Vminpu=0.8 Vmaxpu=1.2 model=1 kW=2.1894046505184286 kvar=0.7281040757251952 Phases=1 yearly=res_kw_1042_pu

New Load.load_p1ulv6223_2 conn=wye bus1=p1ulv6223.2 kV=0.12 Vminpu=0.8 Vmaxpu=1.2 model=1 kW=2.1894046505184286 kvar=0.7281040757251952 Phases=1 yearly=res_kw_1042_pu

New Load.load_p1ulv6224_1 conn=wye bus1=p1ulv6223.1 kV=0.12 Vminpu=0.8 Vmaxpu=1.2 model=1 kW=5.675346369339635 kvar=1.238985226090579 Phases=1 yearly=res_kw_1186_pu

New Load.load_p1ulv6224_2 conn=wye bus1=p1ulv6223.2 kV=0.12 Vminpu=0.8 Vmaxpu=1.2 model=1 kW=5.675346369339635 kvar=1.238985226090579 Phases=1 yearly=res_kw_1186_pu

New Load.load_p1ulv6225_1 conn=wye bus1=p1ulv6225.1 kV=0.12 Vminpu=0.8 Vmaxpu=1.2 model=1 kW=2.6241521841182514 kvar=0.8429304779950015 Phases=1 yearly=res_kw_33_pu

New Load.load_p1ulv6225_2 conn=wye bus1=p1ulv6225.2 kV=0.12 Vminpu=0.8 Vmaxpu=1.2 model=1 kW=2.6241521841182514 kvar=0.8429304779950015 Phases=1 yearly=res_kw_33_pu

New Load.load_p1ulv6226_1 conn=wye bus1=p1ulv6226.1 kV=0.12 Vminpu=0.8 Vmaxpu=1.2 model=1 kW=3.3701610259235064 kvar=1.065454990641787 Phases=1 yearly=res_kw_1037_pu

New Load.load_p1ulv6226_2 conn=wye bus1=p1ulv6226.2 kV=0.12 Vminpu=0.8 Vmaxpu=1.2 model=1 kW=3.3701610259235064 kvar=1.065454990641787 Phases=1 yearly=res_kw_1037_pu

New Load.load_p1ulv6227_1 conn=wye bus1=p1ulv6227.1 kV=0.12 Vminpu=0.8 Vmaxpu=1.2 model=1 kW=2.5137827263873103 kvar=0.7927782724892762 Phases=1 yearly=res_kw_621_pu

New Load.load_p1ulv6227_2 conn=wye bus1=p1ulv6227.2 kV=0.12 Vminpu=0.8 Vmaxpu=1.2 model=1 kW=2.5137827263873103 kvar=0.7927782724892762 Phases=1 yearly=res_kw_621_pu

New Load.load_p1ulv6228_1 conn=wye bus1=p1ulv6228.1 kV=0.12 Vminpu=0.8 Vmaxpu=1.2 model=1 kW=7.151603169892386 kvar=1.493762478537685 Phases=1 yearly=res_kw_30_pu

New Load.load_p1ulv6228_2 conn=wye bus1=p1ulv6228.2 kV=0.12 Vminpu=0.8 Vmaxpu=1.2 model=1 kW=7.151603169892386 kvar=1.493762478537685 Phases=1 yearly=res_kw_30_pu

New Load.load_p1ulv6229_1 conn=wye bus1=p1ulv6228.1 kV=0.12 Vminpu=0.8 Vmaxpu=1.2 model=1 kW=2.605021030189827 kvar=1.0007509371876184 Phases=1 yearly=res_kw_24_pu

New Load.load_p1ulv6229_2 conn=wye bus1=p1ulv6228.2 kV=0.12 Vminpu=0.8 Vmaxpu=1.2 model=1 kW=2.605021030189827 kvar=1.0007509371876184 Phases=1 yearly=res_kw_24_pu

New Load.load_p1ulv6230_1 conn=wye bus1=p1ulv6230.1 kV=0.12 Vminpu=0.8 Vmaxpu=1.2 model=1 kW=5.675346369339635 kvar=1.238985226090579 Phases=1 yearly=res_kw_1186_pu

New Load.load_p1ulv6230_2 conn=wye bus1=p1ulv6230.2 kV=0.12 Vminpu=0.8 Vmaxpu=1.2 model=1 kW=5.675346369339635 kvar=1.238985226090579 Phases=1 yearly=res_kw_1186_pu

New Load.load_p1ulv6231_1 conn=wye bus1=p1ulv6231.1 kV=0.12 Vminpu=0.8 Vmaxpu=1.2 model=1 kW=2.1376631749204993 kvar=0.6218033466021168 Phases=1 yearly=res_kw_93_pu

New Load.load_p1ulv6231_2 conn=wye bus1=p1ulv6231.2 kV=0.12 Vminpu=0.8 Vmaxpu=1.2 model=1 kW=2.1376631749204993 kvar=0.6218033466021168 Phases=1 yearly=res_kw_93_pu

New Load.load_p1ulv6232_1 conn=wye bus1=p1ulv6231.1 kV=0.12 Vminpu=0.8 Vmaxpu=1.2 model=1 kW=1.3741353032147752 kvar=0.58237922359024 Phases=1 yearly=res_kw_1041_pu

New Load.load_p1ulv6232_2 conn=wye bus1=p1ulv6231.2 kV=0.12 Vminpu=0.8 Vmaxpu=1.2 model=1 kW=1.3741353032147752 kvar=0.58237922359024 Phases=1 yearly=res_kw_1041_pu

New Load.load_p1ulv6233_1 conn=wye bus1=p1ulv6233.1 kV=0.12 Vminpu=0.8 Vmaxpu=1.2 model=1 kW=2.6241521841182514 kvar=0.8429304779950015 Phases=1 yearly=res_kw_33_pu

New Load.load_p1ulv6233_2 conn=wye bus1=p1ulv6233.2 kV=0.12 Vminpu=0.8 Vmaxpu=1.2 model=1 kW=2.6241521841182514 kvar=0.8429304779950015 Phases=1 yearly=res_kw_33_pu

New Load.load_p1ulv6235_1 conn=wye bus1=p1ulv6235.1 kV=0.12 Vminpu=0.8 Vmaxpu=1.2 model=1 kW=4.792624300749482 kvar=1.1139407265067676 Phases=1 yearly=res_kw_898_pu

New Load.load_p1ulv6235_2 conn=wye bus1=p1ulv6235.2 kV=0.12 Vminpu=0.8 Vmaxpu=1.2 model=1 kW=4.792624300749482 kvar=1.1139407265067676 Phases=1 yearly=res_kw_898_pu

New Load.load_p1ulv6236_1 conn=wye bus1=p1ulv6236.1 kV=0.12 Vminpu=0.8 Vmaxpu=1.2 model=1 kW=7.088530083600876 kvar=2.6134476319600712 Phases=1 yearly=res_kw_267_pu

New Load.load_p1ulv6236_2 conn=wye bus1=p1ulv6236.2 kV=0.12 Vminpu=0.8 Vmaxpu=1.2 model=1 kW=7.088530083600876 kvar=2.6134476319600712 Phases=1 yearly=res_kw_267_pu

New Load.load_p1ulv6237 conn=wye bus1=p1ulv6237.1.2.3 kV=0.48 Vminpu=0.8 Vmaxpu=1.2 model=1 kW=18.97699733312325 kvar=5.052788558727019 Phases=3 yearly=com_kw_14097_pu

New Load.load_p1ulv6238_1 conn=wye bus1=p1ulv6238.1 kV=0.12 Vminpu=0.8 Vmaxpu=1.2 model=1 kW=5.593814709601456 kvar=0.9267363329025571 Phases=1 yearly=res_kw_561_pu

New Load.load_p1ulv6238_2 conn=wye bus1=p1ulv6238.2 kV=0.12 Vminpu=0.8 Vmaxpu=1.2 model=1 kW=5.593814709601456 kvar=0.9267363329025571 Phases=1 yearly=res_kw_561_pu

New Load.load_p1ulv6239_1 conn=wye bus1=p1ulv6239.1 kV=0.12 Vminpu=0.8 Vmaxpu=1.2 model=1 kW=4.708977442537992 kvar=0.5396715316626463 Phases=1 yearly=res_kw_1138_pu

New Load.load_p1ulv6239_2 conn=wye bus1=p1ulv6239.2 kV=0.12 Vminpu=0.8 Vmaxpu=1.2 model=1 kW=4.708977442537992 kvar=0.5396715316626463 Phases=1 yearly=res_kw_1138_pu

New Load.load_p1ulv6240_1 conn=wye bus1=p1ulv6240.1 kV=0.12 Vminpu=0.8 Vmaxpu=1.2 model=1 kW=4.172219855482922 kvar=0.4149835150358464 Phases=1 yearly=res_kw_806_pu

New Load.load_p1ulv6240_2 conn=wye bus1=p1ulv6240.2 kV=0.12 Vminpu=0.8 Vmaxpu=1.2 model=1 kW=4.172219855482922 kvar=0.4149835150358464 Phases=1 yearly=res_kw_806_pu

New Load.load_p1ulv6241_1 conn=wye bus1=p1ulv6241.1 kV=0.12 Vminpu=0.8 Vmaxpu=1.2 model=1 kW=4.729490236624554 kvar=0.8722842145726449 Phases=1 yearly=res_kw_624_pu

New Load.load_p1ulv6241_2 conn=wye bus1=p1ulv6241.2 kV=0.12 Vminpu=0.8 Vmaxpu=1.2 model=1 kW=4.729490236624554 kvar=0.8722842145726449 Phases=1 yearly=res_kw_624_pu

New Load.load_p1ulv6242_1 conn=wye bus1=p1ulv6242.1 kV=0.12 Vminpu=0.8 Vmaxpu=1.2 model=1 kW=10.375628907780863 kvar=4.616486224330442 Phases=1 yearly=res_kw_1267_pu

New Load.load_p1ulv6242_2 conn=wye bus1=p1ulv6242.2 kV=0.12 Vminpu=0.8 Vmaxpu=1.2 model=1 kW=10.375628907780863 kvar=4.616486224330442 Phases=1 yearly=res_kw_1267_pu

New Load.load_p1ulv6243_1 conn=wye bus1=p1ulv6243.1 kV=0.12 Vminpu=0.8 Vmaxpu=1.2 model=1 kW=2.9898249364160714 kvar=0.2983164502279761 Phases=1 yearly=res_kw_1070_pu

New Load.load_p1ulv6243_2 conn=wye bus1=p1ulv6243.2 kV=0.12 Vminpu=0.8 Vmaxpu=1.2 model=1 kW=2.9898249364160714 kvar=0.2983164502279761 Phases=1 yearly=res_kw_1070_pu

New Load.load_p1ulv6244_1 conn=wye bus1=p1ulv6244.1 kV=0.12 Vminpu=0.8 Vmaxpu=1.2 model=1 kW=11.519913645766726 kvar=1.865620446374389 Phases=1 yearly=res_kw_754_pu

New Load.load_p1ulv6244_2 conn=wye bus1=p1ulv6244.2 kV=0.12 Vminpu=0.8 Vmaxpu=1.2 model=1 kW=11.519913645766726 kvar=1.865620446374389 Phases=1 yearly=res_kw_754_pu

New Load.load_p1ulv6245_1 conn=wye bus1=p1ulv6245.1 kV=0.12 Vminpu=0.8 Vmaxpu=1.2 model=1 kW=7.721615461137303 kvar=1.7536039230317741 Phases=1 yearly=res_kw_1013_pu

New Load.load_p1ulv6245_2 conn=wye bus1=p1ulv6245.2 kV=0.12 Vminpu=0.8 Vmaxpu=1.2 model=1 kW=7.721615461137303 kvar=1.7536039230317741 Phases=1 yearly=res_kw_1013_pu

New Load.load_p1ulv6246_1 conn=wye bus1=p1ulv6246.1 kV=0.12 Vminpu=0.8 Vmaxpu=1.2 model=1 kW=18.487291050551754 kvar=3.8726939013399893 Phases=1 yearly=res_kw_271_pu

New Load.load_p1ulv6246_2 conn=wye bus1=p1ulv6246.2 kV=0.12 Vminpu=0.8 Vmaxpu=1.2 model=1 kW=18.487291050551754 kvar=3.8726939013399893 Phases=1 yearly=res_kw_271_pu

New Load.load_p1ulv6247_1 conn=wye bus1=p1ulv6247.1 kV=0.12 Vminpu=0.8 Vmaxpu=1.2 model=1 kW=7.088530083600876 kvar=2.6134476319600712 Phases=1 yearly=res_kw_267_pu

New Load.load_p1ulv6247_2 conn=wye bus1=p1ulv6247.2 kV=0.12 Vminpu=0.8 Vmaxpu=1.2 model=1 kW=7.088530083600876 kvar=2.6134476319600712 Phases=1 yearly=res_kw_267_pu

New Load.load_p1ulv6248_1 conn=wye bus1=p1ulv6248.1 kV=0.12 Vminpu=0.8 Vmaxpu=1.2 model=1 kW=10.375628907780863 kvar=4.616486224330442 Phases=1 yearly=res_kw_1267_pu

New Load.load_p1ulv6248_2 conn=wye bus1=p1ulv6248.2 kV=0.12 Vminpu=0.8 Vmaxpu=1.2 model=1 kW=10.375628907780863 kvar=4.616486224330442 Phases=1 yearly=res_kw_1267_pu

New Load.load_p1ulv6249_1 conn=wye bus1=p1ulv6249.1 kV=0.12 Vminpu=0.8 Vmaxpu=1.2 model=1 kW=5.004398133545832 kvar=1.6986912664433456 Phases=1 yearly=res_kw_101_pu

New Load.load_p1ulv6249_2 conn=wye bus1=p1ulv6249.2 kV=0.12 Vminpu=0.8 Vmaxpu=1.2 model=1 kW=5.004398133545832 kvar=1.6986912664433456 Phases=1 yearly=res_kw_101_pu

New Load.load_p1ulv6631_1 conn=wye bus1=p1ulv6631.1 kV=0.12 Vminpu=0.8 Vmaxpu=1.2 model=1 kW=9.666699253995569 kvar=2.090221480167897 Phases=1 yearly=res_kw_46_pu

New Load.load_p1ulv6631_2 conn=wye bus1=p1ulv6631.2 kV=0.12 Vminpu=0.8 Vmaxpu=1.2 model=1 kW=9.666699253995569 kvar=2.090221480167897 Phases=1 yearly=res_kw_46_pu

New Load.load_p1ulv6632_1 conn=wye bus1=p1ulv6632.1 kV=0.12 Vminpu=0.8 Vmaxpu=1.2 model=1 kW=3.308494316062581 kvar=0.7969773391329138 Phases=1 yearly=res_kw_626_pu

New Load.load_p1ulv6632_2 conn=wye bus1=p1ulv6632.2 kV=0.12 Vminpu=0.8 Vmaxpu=1.2 model=1 kW=3.308494316062581 kvar=0.7969773391329138 Phases=1 yearly=res_kw_626_pu

New Load.load_p1ulv6633_1 conn=wye bus1=p1ulv6633.1 kV=0.12 Vminpu=0.8 Vmaxpu=1.2 model=1 kW=3.629714039262861 kvar=1.2034402112399032 Phases=1 yearly=res_kw_203_pu

New Load.load_p1ulv6633_2 conn=wye bus1=p1ulv6633.2 kV=0.12 Vminpu=0.8 Vmaxpu=1.2 model=1 kW=3.629714039262861 kvar=1.2034402112399032 Phases=1 yearly=res_kw_203_pu

New Load.load_p1ulv7389_1 conn=wye bus1=p1ulv7389.1 kV=0.12 Vminpu=0.8 Vmaxpu=1.2 model=1 kW=5.777968789114468 kvar=0.5425823089827511 Phases=1 yearly=com_kw_15253_pu

New Load.load_p1ulv7389_2 conn=wye bus1=p1ulv7389.2 kV=0.12 Vminpu=0.8 Vmaxpu=1.2 model=1 kW=5.777968789114468 kvar=0.5425823089827511 Phases=1 yearly=com_kw_15253_pu

New Load.load_p1ulv7391 conn=wye bus1=p1ulv7391.1.2.3 kV=0.48 Vminpu=0.8 Vmaxpu=1.2 model=1 kW=22.152047737869896 kvar=6.510834234174965 Phases=3 yearly=com_kw_14325_pu

New Load.load_p1umv10 conn=wye bus1=p1umv10.1.2.3 kV=12.47 Vminpu=0.8 Vmaxpu=1.2 model=1 kW=1421.5892427429526 kvar=87.79469437278011 Phases=3 yearly=com_kw_13428_pu

New Load.load_p1ulv7393 conn=wye bus1=p1ulv7393.1.2.3 kV=0.48 Vminpu=0.8 Vmaxpu=1.2 model=1 kW=359.6894358959385 kvar=105.981216307442 Phases=3 yearly=com_kw_12814_pu

New Load.load_p1ulv7394_1 conn=wye bus1=p1ulv7394.1 kV=0.12 Vminpu=0.8 Vmaxpu=1.2 model=1 kW=9.484346446725981 kvar=0.4751538818991885 Phases=1 yearly=com_kw_14518_pu

New Load.load_p1ulv7394_2 conn=wye bus1=p1ulv7394.2 kV=0.12 Vminpu=0.8 Vmaxpu=1.2 model=1 kW=9.484346446725981 kvar=0.4751538818991885 Phases=1 yearly=com_kw_14518_pu

New Load.load_p1ulv7395 conn=wye bus1=p1ulv7395.1.2.3 kV=0.48 Vminpu=0.8 Vmaxpu=1.2 model=1 kW=359.6894358959385 kvar=105.981216307442 Phases=3 yearly=com_kw_12814_pu

New Load.load_p1ulv7716_1 conn=wye bus1=p1ulv7716.1 kV=0.12 Vminpu=0.8 Vmaxpu=1.2 model=1 kW=4.2457196737435785 kvar=0.34891192789173087 Phases=1 yearly=res_kw_917_pu

New Load.load_p1ulv7716_2 conn=wye bus1=p1ulv7716.2 kV=0.12 Vminpu=0.8 Vmaxpu=1.2 model=1 kW=4.2457196737435785 kvar=0.34891192789173087 Phases=1 yearly=res_kw_917_pu

New Load.load_p1ulv7717_1 conn=wye bus1=p1ulv7717.1 kV=0.12 Vminpu=0.8 Vmaxpu=1.2 model=1 kW=4.788649591238137 kvar=1.023651375705972 Phases=1 yearly=res_kw_512_pu

New Load.load_p1ulv7717_2 conn=wye bus1=p1ulv7717.2 kV=0.12 Vminpu=0.8 Vmaxpu=1.2 model=1 kW=4.788649591238137 kvar=1.023651375705972 Phases=1 yearly=res_kw_512_pu

New Load.load_p1ulv7718_1 conn=wye bus1=p1ulv7718.1 kV=0.12 Vminpu=0.8 Vmaxpu=1.2 model=1 kW=2.1894046505184286 kvar=0.7281040757251952 Phases=1 yearly=res_kw_1042_pu

New Load.load_p1ulv7718_2 conn=wye bus1=p1ulv7718.2 kV=0.12 Vminpu=0.8 Vmaxpu=1.2 model=1 kW=2.1894046505184286 kvar=0.7281040757251952 Phases=1 yearly=res_kw_1042_pu

New Load.load_p1ulv7719_1 conn=wye bus1=p1ulv7718.1 kV=0.12 Vminpu=0.8 Vmaxpu=1.2 model=1 kW=1.3741353032147752 kvar=0.58237922359024 Phases=1 yearly=res_kw_1041_pu

New Load.load_p1ulv7719_2 conn=wye bus1=p1ulv7718.2 kV=0.12 Vminpu=0.8 Vmaxpu=1.2 model=1 kW=1.3741353032147752 kvar=0.58237922359024 Phases=1 yearly=res_kw_1041_pu

New Load.load_p1ulv7720_1 conn=wye bus1=p1ulv7720.1 kV=0.12 Vminpu=0.8 Vmaxpu=1.2 model=1 kW=2.605021030189827 kvar=1.0007509371876184 Phases=1 yearly=res_kw_24_pu

New Load.load_p1ulv7720_2 conn=wye bus1=p1ulv7720.2 kV=0.12 Vminpu=0.8 Vmaxpu=1.2 model=1 kW=2.605021030189827 kvar=1.0007509371876184 Phases=1 yearly=res_kw_24_pu

New Load.load_p1ulv7721_1 conn=wye bus1=p1ulv7721.1 kV=0.12 Vminpu=0.8 Vmaxpu=1.2 model=1 kW=4.788649591238137 kvar=1.023651375705972 Phases=1 yearly=res_kw_512_pu

New Load.load_p1ulv7721_2 conn=wye bus1=p1ulv7721.2 kV=0.12 Vminpu=0.8 Vmaxpu=1.2 model=1 kW=4.788649591238137 kvar=1.023651375705972 Phases=1 yearly=res_kw_512_pu

New Load.load_p1ulv7722_1 conn=wye bus1=p1ulv7722.1 kV=0.12 Vminpu=0.8 Vmaxpu=1.2 model=1 kW=2.1376631749204993 kvar=0.6218033466021168 Phases=1 yearly=res_kw_93_pu

New Load.load_p1ulv7722_2 conn=wye bus1=p1ulv7722.2 kV=0.12 Vminpu=0.8 Vmaxpu=1.2 model=1 kW=2.1376631749204993 kvar=0.6218033466021168 Phases=1 yearly=res_kw_93_pu

New Load.load_p1ulv7723_1 conn=wye bus1=p1ulv7723.1 kV=0.12 Vminpu=0.8 Vmaxpu=1.2 model=1 kW=2.1376631749204993 kvar=0.6218033466021168 Phases=1 yearly=res_kw_93_pu

New Load.load_p1ulv7723_2 conn=wye bus1=p1ulv7723.2 kV=0.12 Vminpu=0.8 Vmaxpu=1.2 model=1 kW=2.1376631749204993 kvar=0.6218033466021168 Phases=1 yearly=res_kw_93_pu

New Load.load_p1ulv7724_1 conn=wye bus1=p1ulv7724.1 kV=0.12 Vminpu=0.8 Vmaxpu=1.2 model=1 kW=2.605021030189827 kvar=1.0007509371876184 Phases=1 yearly=res_kw_24_pu

New Load.load_p1ulv7724_2 conn=wye bus1=p1ulv7724.2 kV=0.12 Vminpu=0.8 Vmaxpu=1.2 model=1 kW=2.605021030189827 kvar=1.0007509371876184 Phases=1 yearly=res_kw_24_pu

New Load.load_p1ulv7725_1 conn=wye bus1=p1ulv7725.1 kV=0.12 Vminpu=0.8 Vmaxpu=1.2 model=1 kW=8.612390749193064 kvar=1.8058518746416834 Phases=1 yearly=res_kw_1159_pu

New Load.load_p1ulv7725_2 conn=wye bus1=p1ulv7725.2 kV=0.12 Vminpu=0.8 Vmaxpu=1.2 model=1 kW=8.612390749193064 kvar=1.8058518746416834 Phases=1 yearly=res_kw_1159_pu

New Load.load_p1ulv7726_1 conn=wye bus1=p1ulv7726.1 kV=0.12 Vminpu=0.8 Vmaxpu=1.2 model=1 kW=1.3741353032147752 kvar=0.58237922359024 Phases=1 yearly=res_kw_1041_pu

New Load.load_p1ulv7726_2 conn=wye bus1=p1ulv7726.2 kV=0.12 Vminpu=0.8 Vmaxpu=1.2 model=1 kW=1.3741353032147752 kvar=0.58237922359024 Phases=1 yearly=res_kw_1041_pu

New Load.load_p1ulv7727_1 conn=wye bus1=p1ulv7727.1 kV=0.12 Vminpu=0.8 Vmaxpu=1.2 model=1 kW=1.8883480354683608 kvar=0.7466800149503461 Phases=1 yearly=res_kw_715_pu

New Load.load_p1ulv7727_2 conn=wye bus1=p1ulv7727.2 kV=0.12 Vminpu=0.8 Vmaxpu=1.2 model=1 kW=1.8883480354683608 kvar=0.7466800149503461 Phases=1 yearly=res_kw_715_pu

New Load.load_p1ulv7728_1 conn=wye bus1=p1ulv7727.1 kV=0.12 Vminpu=0.8 Vmaxpu=1.2 model=1 kW=1.6746299650392789 kvar=0.594727774010976 Phases=1 yearly=res_kw_1276_pu

New Load.load_p1ulv7728_2 conn=wye bus1=p1ulv7727.2 kV=0.12 Vminpu=0.8 Vmaxpu=1.2 model=1 kW=1.6746299650392789 kvar=0.594727774010976 Phases=1 yearly=res_kw_1276_pu

New Load.load_p1ulv7729_1 conn=wye bus1=p1ulv7729.1 kV=0.12 Vminpu=0.8 Vmaxpu=1.2 model=1 kW=2.605021030189827 kvar=1.0007509371876184 Phases=1 yearly=res_kw_24_pu

New Load.load_p1ulv7729_2 conn=wye bus1=p1ulv7729.2 kV=0.12 Vminpu=0.8 Vmaxpu=1.2 model=1 kW=2.605021030189827 kvar=1.0007509371876184 Phases=1 yearly=res_kw_24_pu

New Load.load_p1ulv7730_1 conn=wye bus1=p1ulv7730.1 kV=0.12 Vminpu=0.8 Vmaxpu=1.2 model=1 kW=2.1376631749204993 kvar=0.6218033466021168 Phases=1 yearly=res_kw_93_pu

New Load.load_p1ulv7730_2 conn=wye bus1=p1ulv7730.2 kV=0.12 Vminpu=0.8 Vmaxpu=1.2 model=1 kW=2.1376631749204993 kvar=0.6218033466021168 Phases=1 yearly=res_kw_93_pu

New Load.load_p1ulv7731_1 conn=wye bus1=p1ulv7731.1 kV=0.12 Vminpu=0.8 Vmaxpu=1.2 model=1 kW=1.8618983584330409 kvar=0.7337589993741062 Phases=1 yearly=res_kw_141_pu

New Load.load_p1ulv7731_2 conn=wye bus1=p1ulv7731.2 kV=0.12 Vminpu=0.8 Vmaxpu=1.2 model=1 kW=1.8618983584330409 kvar=0.7337589993741062 Phases=1 yearly=res_kw_141_pu

New Load.load_p1ulv7732_1 conn=wye bus1=p1ulv7732.1 kV=0.12 Vminpu=0.8 Vmaxpu=1.2 model=1 kW=7.151603169892386 kvar=1.493762478537685 Phases=1 yearly=res_kw_30_pu

New Load.load_p1ulv7732_2 conn=wye bus1=p1ulv7732.2 kV=0.12 Vminpu=0.8 Vmaxpu=1.2 model=1 kW=7.151603169892386 kvar=1.493762478537685 Phases=1 yearly=res_kw_30_pu

New Load.load_p1ulv7733_1 conn=wye bus1=p1ulv7733.1 kV=0.12 Vminpu=0.8 Vmaxpu=1.2 model=1 kW=2.1894046505184286 kvar=0.7281040757251952 Phases=1 yearly=res_kw_1042_pu

New Load.load_p1ulv7733_2 conn=wye bus1=p1ulv7733.2 kV=0.12 Vminpu=0.8 Vmaxpu=1.2 model=1 kW=2.1894046505184286 kvar=0.7281040757251952 Phases=1 yearly=res_kw_1042_pu

New Load.load_p1ulv7734_1 conn=wye bus1=p1ulv7734.1 kV=0.12 Vminpu=0.8 Vmaxpu=1.2 model=1 kW=2.1376631749204993 kvar=0.6218033466021168 Phases=1 yearly=res_kw_93_pu

New Load.load_p1ulv7734_2 conn=wye bus1=p1ulv7734.2 kV=0.12 Vminpu=0.8 Vmaxpu=1.2 model=1 kW=2.1376631749204993 kvar=0.6218033466021168 Phases=1 yearly=res_kw_93_pu

New Load.load_p1ulv7735_1 conn=wye bus1=p1ulv7735.1 kV=0.12 Vminpu=0.8 Vmaxpu=1.2 model=1 kW=2.605021030189827 kvar=1.0007509371876184 Phases=1 yearly=res_kw_24_pu

New Load.load_p1ulv7735_2 conn=wye bus1=p1ulv7735.2 kV=0.12 Vminpu=0.8 Vmaxpu=1.2 model=1 kW=2.605021030189827 kvar=1.0007509371876184 Phases=1 yearly=res_kw_24_pu

New Load.load_p1ulv7736_1 conn=wye bus1=p1ulv7736.1 kV=0.12 Vminpu=0.8 Vmaxpu=1.2 model=1 kW=2.1894046505184286 kvar=0.7281040757251952 Phases=1 yearly=res_kw_1042_pu

New Load.load_p1ulv7736_2 conn=wye bus1=p1ulv7736.2 kV=0.12 Vminpu=0.8 Vmaxpu=1.2 model=1 kW=2.1894046505184286 kvar=0.7281040757251952 Phases=1 yearly=res_kw_1042_pu

New Load.load_p1ulv7737_1 conn=wye bus1=p1ulv7737.1 kV=0.12 Vminpu=0.8 Vmaxpu=1.2 model=1 kW=2.0903747651596376 kvar=0.7957076388263523 Phases=1 yearly=res_kw_1223_pu

New Load.load_p1ulv7737_2 conn=wye bus1=p1ulv7737.2 kV=0.12 Vminpu=0.8 Vmaxpu=1.2 model=1 kW=2.0903747651596376 kvar=0.7957076388263523 Phases=1 yearly=res_kw_1223_pu

New Load.load_p1ulv7738_1 conn=wye bus1=p1ulv7738.1 kV=0.12 Vminpu=0.8 Vmaxpu=1.2 model=1 kW=4.505900280832392 kvar=0.6729743583292512 Phases=1 yearly=res_kw_453_pu

New Load.load_p1ulv7738_2 conn=wye bus1=p1ulv7738.2 kV=0.12 Vminpu=0.8 Vmaxpu=1.2 model=1 kW=4.505900280832392 kvar=0.6729743583292512 Phases=1 yearly=res_kw_453_pu

New Load.load_p1ulv7739_1 conn=wye bus1=p1ulv7739.1 kV=0.12 Vminpu=0.8 Vmaxpu=1.2 model=1 kW=1.8618983584330409 kvar=0.7337589993741062 Phases=1 yearly=res_kw_141_pu

New Load.load_p1ulv7739_2 conn=wye bus1=p1ulv7739.2 kV=0.12 Vminpu=0.8 Vmaxpu=1.2 model=1 kW=1.8618983584330409 kvar=0.7337589993741062 Phases=1 yearly=res_kw_141_pu

New Load.load_p1ulv7740_1 conn=wye bus1=p1ulv7740.1 kV=0.12 Vminpu=0.8 Vmaxpu=1.2 model=1 kW=2.1376631749204993 kvar=0.6218033466021168 Phases=1 yearly=res_kw_93_pu

New Load.load_p1ulv7740_2 conn=wye bus1=p1ulv7740.2 kV=0.12 Vminpu=0.8 Vmaxpu=1.2 model=1 kW=2.1376631749204993 kvar=0.6218033466021168 Phases=1 yearly=res_kw_93_pu

New Load.load_p1ulv7741_1 conn=wye bus1=p1ulv7741.1 kV=0.12 Vminpu=0.8 Vmaxpu=1.2 model=1 kW=2.1376631749204993 kvar=0.6218033466021168 Phases=1 yearly=res_kw_93_pu

New Load.load_p1ulv7741_2 conn=wye bus1=p1ulv7741.2 kV=0.12 Vminpu=0.8 Vmaxpu=1.2 model=1 kW=2.1376631749204993 kvar=0.6218033466021168 Phases=1 yearly=res_kw_93_pu

New Load.load_p1ulv7742_1 conn=wye bus1=p1ulv7741.1 kV=0.12 Vminpu=0.8 Vmaxpu=1.2 model=1 kW=2.1376631749204993 kvar=0.6218033466021168 Phases=1 yearly=res_kw_93_pu

New Load.load_p1ulv7742_2 conn=wye bus1=p1ulv7741.2 kV=0.12 Vminpu=0.8 Vmaxpu=1.2 model=1 kW=2.1376631749204993 kvar=0.6218033466021168 Phases=1 yearly=res_kw_93_pu

New Load.load_p1ulv7743_1 conn=wye bus1=p1ulv7743.1 kV=0.12 Vminpu=0.8 Vmaxpu=1.2 model=1 kW=7.151603169892386 kvar=1.493762478537685 Phases=1 yearly=res_kw_30_pu

New Load.load_p1ulv7743_2 conn=wye bus1=p1ulv7743.2 kV=0.12 Vminpu=0.8 Vmaxpu=1.2 model=1 kW=7.151603169892386 kvar=1.493762478537685 Phases=1 yearly=res_kw_30_pu

New Load.load_p1ulv7744_1 conn=wye bus1=p1ulv7744.1 kV=0.12 Vminpu=0.8 Vmaxpu=1.2 model=1 kW=2.5137827263873103 kvar=0.7927782724892762 Phases=1 yearly=res_kw_621_pu

New Load.load_p1ulv7744_2 conn=wye bus1=p1ulv7744.2 kV=0.12 Vminpu=0.8 Vmaxpu=1.2 model=1 kW=2.5137827263873103 kvar=0.7927782724892762 Phases=1 yearly=res_kw_621_pu

New Load.load_p1ulv7745_1 conn=wye bus1=p1ulv7744.1 kV=0.12 Vminpu=0.8 Vmaxpu=1.2 model=1 kW=2.623267981089487 kvar=1.212519304398851 Phases=1 yearly=res_kw_452_pu

New Load.load_p1ulv7745_2 conn=wye bus1=p1ulv7744.2 kV=0.12 Vminpu=0.8 Vmaxpu=1.2 model=1 kW=2.623267981089487 kvar=1.212519304398851 Phases=1 yearly=res_kw_452_pu

New Load.load_p1ulv7746_1 conn=wye bus1=p1ulv7746.1 kV=0.12 Vminpu=0.8 Vmaxpu=1.2 model=1 kW=5.675346369339635 kvar=1.238985226090579 Phases=1 yearly=res_kw_1186_pu

New Load.load_p1ulv7746_2 conn=wye bus1=p1ulv7746.2 kV=0.12 Vminpu=0.8 Vmaxpu=1.2 model=1 kW=5.675346369339635 kvar=1.238985226090579 Phases=1 yearly=res_kw_1186_pu

New Load.load_p1ulv7747_1 conn=wye bus1=p1ulv7747.1 kV=0.12 Vminpu=0.8 Vmaxpu=1.2 model=1 kW=2.6241521841182514 kvar=0.8429304779950015 Phases=1 yearly=res_kw_33_pu

New Load.load_p1ulv7747_2 conn=wye bus1=p1ulv7747.2 kV=0.12 Vminpu=0.8 Vmaxpu=1.2 model=1 kW=2.6241521841182514 kvar=0.8429304779950015 Phases=1 yearly=res_kw_33_pu

New Load.load_p1ulv7748_1 conn=wye bus1=p1ulv7748.1 kV=0.12 Vminpu=0.8 Vmaxpu=1.2 model=1 kW=2.1376631749204993 kvar=0.6218033466021168 Phases=1 yearly=res_kw_93_pu

New Load.load_p1ulv7748_2 conn=wye bus1=p1ulv7748.2 kV=0.12 Vminpu=0.8 Vmaxpu=1.2 model=1 kW=2.1376631749204993 kvar=0.6218033466021168 Phases=1 yearly=res_kw_93_pu

New Load.load_p1ulv7749_1 conn=wye bus1=p1ulv7748.1 kV=0.12 Vminpu=0.8 Vmaxpu=1.2 model=1 kW=2.1894046505184286 kvar=0.7281040757251952 Phases=1 yearly=res_kw_1042_pu

New Load.load_p1ulv7749_2 conn=wye bus1=p1ulv7748.2 kV=0.12 Vminpu=0.8 Vmaxpu=1.2 model=1 kW=2.1894046505184286 kvar=0.7281040757251952 Phases=1 yearly=res_kw_1042_pu

New Load.load_p1ulv7750_1 conn=wye bus1=p1ulv7750.1 kV=0.12 Vminpu=0.8 Vmaxpu=1.2 model=1 kW=1.6746299650392789 kvar=0.594727774010976 Phases=1 yearly=res_kw_1276_pu

New Load.load_p1ulv7750_2 conn=wye bus1=p1ulv7750.2 kV=0.12 Vminpu=0.8 Vmaxpu=1.2 model=1 kW=1.6746299650392789 kvar=0.594727774010976 Phases=1 yearly=res_kw_1276_pu

New Load.load_p1ulv7751_1 conn=wye bus1=p1ulv7750.1 kV=0.12 Vminpu=0.8 Vmaxpu=1.2 model=1 kW=2.6241521841182514 kvar=0.8429304779950015 Phases=1 yearly=res_kw_33_pu
