New Load.load_p1ulv292_1 conn=wye bus1=p1ulv292.1 kV=0.12 Vminpu=0.8 Vmaxpu=1.2 model=1 kW=2.1271986187473146 kvar=0.5751959086648131 Phases=1 yearly=com_kw_14402_pu

New Load.load_p1ulv292_2 conn=wye bus1=p1ulv292.2 kV=0.12 Vminpu=0.8 Vmaxpu=1.2 model=1 kW=2.1271986187473146 kvar=0.5751959086648131 Phases=1 yearly=com_kw_14402_pu

New Load.load_p1ulv293_1 conn=wye bus1=p1ulv292.1 kV=0.12 Vminpu=0.8 Vmaxpu=1.2 model=1 kW=1.8914832317680952 kvar=0.4701288429802831 Phases=1 yearly=com_kw_13018_pu

New Load.load_p1ulv293_2 conn=wye bus1=p1ulv292.2 kV=0.12 Vminpu=0.8 Vmaxpu=1.2 model=1 kW=1.8914832317680952 kvar=0.4701288429802831 Phases=1 yearly=com_kw_13018_pu

New Load.load_p1ulv294_1 conn=wye bus1=p1ulv294.1 kV=0.12 Vminpu=0.8 Vmaxpu=1.2 model=1 kW=1.8914832317680952 kvar=0.4701288429802831 Phases=1 yearly=com_kw_13018_pu

New Load.load_p1ulv294_2 conn=wye bus1=p1ulv294.2 kV=0.12 Vminpu=0.8 Vmaxpu=1.2 model=1 kW=1.8914832317680952 kvar=0.4701288429802831 Phases=1 yearly=com_kw_13018_pu

New Load.load_p1ulv295_1 conn=wye bus1=p1ulv295.1 kV=0.12 Vminpu=0.8 Vmaxpu=1.2 model=1 kW=1.8914832317680952 kvar=0.4701288429802831 Phases=1 yearly=com_kw_13018_pu

New Load.load_p1ulv295_2 conn=wye bus1=p1ulv295.2 kV=0.12 Vminpu=0.8 Vmaxpu=1.2 model=1 kW=1.8914832317680952 kvar=0.4701288429802831 Phases=1 yearly=com_kw_13018_pu

New Load.load_p1ulv296_1 conn=wye bus1=p1ulv295.1 kV=0.12 Vminpu=0.8 Vmaxpu=1.2 model=1 kW=1.8914832317680952 kvar=0.4701288429802831 Phases=1 yearly=com_kw_13018_pu

New Load.load_p1ulv296_2 conn=wye bus1=p1ulv295.2 kV=0.12 Vminpu=0.8 Vmaxpu=1.2 model=1 kW=1.8914832317680952 kvar=0.4701288429802831 Phases=1 yearly=com_kw_13018_pu

New Load.load_p1ulv297_1 conn=wye bus1=p1ulv297.1 kV=0.12 Vminpu=0.8 Vmaxpu=1.2 model=1 kW=5.2700301388011015 kvar=0.34790018828686164 Phases=1 yearly=com_kw_13502_pu

New Load.load_p1ulv297_2 conn=wye bus1=p1ulv297.2 kV=0.12 Vminpu=0.8 Vmaxpu=1.2 model=1 kW=5.2700301388011015 kvar=0.34790018828686164 Phases=1 yearly=com_kw_13502_pu

New Load.load_p1ulv298_1 conn=wye bus1=p1ulv297.1 kV=0.12 Vminpu=0.8 Vmaxpu=1.2 model=1 kW=1.8914832317680952 kvar=0.4701288429802831 Phases=1 yearly=com_kw_13018_pu

New Load.load_p1ulv298_2 conn=wye bus1=p1ulv297.2 kV=0.12 Vminpu=0.8 Vmaxpu=1.2 model=1 kW=1.8914832317680952 kvar=0.4701288429802831 Phases=1 yearly=com_kw_13018_pu

New Load.load_p1ulv299_1 conn=wye bus1=p1ulv299.1 kV=0.12 Vminpu=0.8 Vmaxpu=1.2 model=1 kW=2.4716999256380876 kvar=0.7079643646342628 Phases=1 yearly=com_kw_14407_pu

New Load.load_p1ulv299_2 conn=wye bus1=p1ulv299.2 kV=0.12 Vminpu=0.8 Vmaxpu=1.2 model=1 kW=2.4716999256380876 kvar=0.7079643646342628 Phases=1 yearly=com_kw_14407_pu

New Load.load_p1ulv300_1 conn=wye bus1=p1ulv300.1 kV=0.12 Vminpu=0.8 Vmaxpu=1.2 model=1 kW=4.589231411483642 kvar=0.1871715682789368 Phases=1 yearly=com_kw_13515_pu

New Load.load_p1ulv300_2 conn=wye bus1=p1ulv300.2 kV=0.12 Vminpu=0.8 Vmaxpu=1.2 model=1 kW=4.589231411483642 kvar=0.1871715682789368 Phases=1 yearly=com_kw_13515_pu

New Load.load_p1ulv301_1 conn=wye bus1=p1ulv301.1 kV=0.12 Vminpu=0.8 Vmaxpu=1.2 model=1 kW=2.5979078005670297 kvar=0.7783347543086586 Phases=1 yearly=com_kw_13164_pu

New Load.load_p1ulv301_2 conn=wye bus1=p1ulv301.2 kV=0.12 Vminpu=0.8 Vmaxpu=1.2 model=1 kW=2.5979078005670297 kvar=0.7783347543086586 Phases=1 yearly=com_kw_13164_pu

New Load.load_p1ulv302_1 conn=wye bus1=p1ulv302.1 kV=0.12 Vminpu=0.8 Vmaxpu=1.2 model=1 kW=1.8914832317680952 kvar=0.4701288429802831 Phases=1 yearly=com_kw_13018_pu

New Load.load_p1ulv302_2 conn=wye bus1=p1ulv302.2 kV=0.12 Vminpu=0.8 Vmaxpu=1.2 model=1 kW=1.8914832317680952 kvar=0.4701288429802831 Phases=1 yearly=com_kw_13018_pu

New Load.load_p1ulv303_1 conn=wye bus1=p1ulv303.1 kV=0.12 Vminpu=0.8 Vmaxpu=1.2 model=1 kW=1.4493292356011218 kvar=1.1002454873547782 Phases=1 yearly=res_kw_62_pu

New Load.load_p1ulv303_2 conn=wye bus1=p1ulv303.2 kV=0.12 Vminpu=0.8 Vmaxpu=1.2 model=1 kW=1.4493292356011218 kvar=1.1002454873547782 Phases=1 yearly=res_kw_62_pu

New Load.load_p1ulv304_1 conn=wye bus1=p1ulv304.1 kV=0.12 Vminpu=0.8 Vmaxpu=1.2 model=1 kW=2.465496051676302 kvar=0.5881407747231531 Phases=1 yearly=com_kw_13121_pu

New Load.load_p1ulv304_2 conn=wye bus1=p1ulv304.2 kV=0.12 Vminpu=0.8 Vmaxpu=1.2 model=1 kW=2.465496051676302 kvar=0.5881407747231531 Phases=1 yearly=com_kw_13121_pu

New Load.load_p1ulv305_1 conn=wye bus1=p1ulv305.1 kV=0.12 Vminpu=0.8 Vmaxpu=1.2 model=1 kW=6.847378896370207 kvar=0.2857422414791666 Phases=1 yearly=com_kw_14382_pu

New Load.load_p1ulv305_2 conn=wye bus1=p1ulv305.2 kV=0.12 Vminpu=0.8 Vmaxpu=1.2 model=1 kW=6.847378896370207 kvar=0.2857422414791666 Phases=1 yearly=com_kw_14382_pu

New Load.load_p1ulv306_1 conn=wye bus1=p1ulv306.1 kV=0.12 Vminpu=0.8 Vmaxpu=1.2 model=1 kW=4.081735511976485 kvar=0.9882394625849078 Phases=1 yearly=com_kw_14650_pu

New Load.load_p1ulv306_2 conn=wye bus1=p1ulv306.2 kV=0.12 Vminpu=0.8 Vmaxpu=1.2 model=1 kW=4.081735511976485 kvar=0.9882394625849078 Phases=1 yearly=com_kw_14650_pu

New Load.load_p1ulv307_1 conn=wye bus1=p1ulv307.1 kV=0.12 Vminpu=0.8 Vmaxpu=1.2 model=1 kW=13.251431311430247 kvar=0.1493407165487586 Phases=1 yearly=com_kw_14976_pu

New Load.load_p1ulv307_2 conn=wye bus1=p1ulv307.2 kV=0.12 Vminpu=0.8 Vmaxpu=1.2 model=1 kW=13.251431311430247 kvar=0.1493407165487586 Phases=1 yearly=com_kw_14976_pu

New Load.load_p1ulv308_1 conn=wye bus1=p1ulv308.1 kV=0.12 Vminpu=0.8 Vmaxpu=1.2 model=1 kW=4.589231411483642 kvar=0.1871715682789368 Phases=1 yearly=com_kw_13515_pu

New Load.load_p1ulv308_2 conn=wye bus1=p1ulv308.2 kV=0.12 Vminpu=0.8 Vmaxpu=1.2 model=1 kW=4.589231411483642 kvar=0.1871715682789368 Phases=1 yearly=com_kw_13515_pu

New Load.load_p1ulv309_1 conn=wye bus1=p1ulv309.1 kV=0.12 Vminpu=0.8 Vmaxpu=1.2 model=1 kW=5.073052946727468 kvar=0.334720435390571 Phases=1 yearly=com_kw_14872_pu

New Load.load_p1ulv309_2 conn=wye bus1=p1ulv309.2 kV=0.12 Vminpu=0.8 Vmaxpu=1.2 model=1 kW=5.073052946727468 kvar=0.334720435390571 Phases=1 yearly=com_kw_14872_pu

New Load.load_p1ulv310_1 conn=wye bus1=p1ulv310.1 kV=0.12 Vminpu=0.8 Vmaxpu=1.2 model=1 kW=4.737995147424034 kvar=0.27793880247771546 Phases=1 yearly=com_kw_14277_pu

New Load.load_p1ulv310_2 conn=wye bus1=p1ulv310.2 kV=0.12 Vminpu=0.8 Vmaxpu=1.2 model=1 kW=4.737995147424034 kvar=0.27793880247771546 Phases=1 yearly=com_kw_14277_pu

New Load.load_p1ulv311_1 conn=wye bus1=p1ulv311.1 kV=0.12 Vminpu=0.8 Vmaxpu=1.2 model=1 kW=1.8914832317680952 kvar=0.4701288429802831 Phases=1 yearly=com_kw_13018_pu

New Load.load_p1ulv311_2 conn=wye bus1=p1ulv311.2 kV=0.12 Vminpu=0.8 Vmaxpu=1.2 model=1 kW=1.8914832317680952 kvar=0.4701288429802831 Phases=1 yearly=com_kw_13018_pu

New Load.load_p1ulv312_1 conn=wye bus1=p1ulv312.1 kV=0.12 Vminpu=0.8 Vmaxpu=1.2 model=1 kW=1.8914832317680952 kvar=0.4701288429802831 Phases=1 yearly=com_kw_13018_pu

New Load.load_p1ulv312_2 conn=wye bus1=p1ulv312.2 kV=0.12 Vminpu=0.8 Vmaxpu=1.2 model=1 kW=1.8914832317680952 kvar=0.4701288429802831 Phases=1 yearly=com_kw_13018_pu

New Load.load_p1ulv313_1 conn=wye bus1=p1ulv313.1 kV=0.12 Vminpu=0.8 Vmaxpu=1.2 model=1 kW=5.214317910575264 kvar=0.26498403593368286 Phases=1 yearly=com_kw_13828_pu

New Load.load_p1ulv313_2 conn=wye bus1=p1ulv313.2 kV=0.12 Vminpu=0.8 Vmaxpu=1.2 model=1 kW=5.214317910575264 kvar=0.26498403593368286 Phases=1 yearly=com_kw_13828_pu

New Load.load_p1ulv314_1 conn=wye bus1=p1ulv313.1 kV=0.12 Vminpu=0.8 Vmaxpu=1.2 model=1 kW=1.8914832317680952 kvar=0.4701288429802831 Phases=1 yearly=com_kw_13018_pu

New Load.load_p1ulv314_2 conn=wye bus1=p1ulv313.2 kV=0.12 Vminpu=0.8 Vmaxpu=1.2 model=1 kW=1.8914832317680952 kvar=0.4701288429802831 Phases=1 yearly=com_kw_13018_pu

New Load.load_p1ulv315_1 conn=wye bus1=p1ulv315.1 kV=0.12 Vminpu=0.8 Vmaxpu=1.2 model=1 kW=2.3448408768561366 kvar=0.6799254266592899 Phases=1 yearly=com_kw_13661_pu

New Load.load_p1ulv315_2 conn=wye bus1=p1ulv315.2 kV=0.12 Vminpu=0.8 Vmaxpu=1.2 model=1 kW=2.3448408768561366 kvar=0.6799254266592899 Phases=1 yearly=com_kw_13661_pu

New Load.load_p1ulv316_1 conn=wye bus1=p1ulv316.1 kV=0.12 Vminpu=0.8 Vmaxpu=1.2 model=1 kW=2.465496051676302 kvar=0.5881407747231531 Phases=1 yearly=com_kw_13121_pu

New Load.load_p1ulv316_2 conn=wye bus1=p1ulv316.2 kV=0.12 Vminpu=0.8 Vmaxpu=1.2 model=1 kW=2.465496051676302 kvar=0.5881407747231531 Phases=1 yearly=com_kw_13121_pu

New Load.load_p1ulv3197_1 conn=wye bus1=p1ulv3197.1 kV=0.12 Vminpu=0.8 Vmaxpu=1.2 model=1 kW=3.098218363877214 kvar=0.7122653854230111 Phases=1 yearly=com_kw_12815_pu

New Load.load_p1ulv3197_2 conn=wye bus1=p1ulv3197.2 kV=0.12 Vminpu=0.8 Vmaxpu=1.2 model=1 kW=3.098218363877214 kvar=0.7122653854230111 Phases=1 yearly=com_kw_12815_pu

New Load.load_p1ulv3198_1 conn=wye bus1=p1ulv3197.1 kV=0.12 Vminpu=0.8 Vmaxpu=1.2 model=1 kW=8.467023921232082 kvar=1.428888419380381 Phases=1 yearly=com_kw_12896_pu

New Load.load_p1ulv3198_2 conn=wye bus1=p1ulv3197.2 kV=0.12 Vminpu=0.8 Vmaxpu=1.2 model=1 kW=8.467023921232082 kvar=1.428888419380381 Phases=1 yearly=com_kw_12896_pu

New Load.load_p1ulv3199_1 conn=wye bus1=p1ulv3199.1 kV=0.12 Vminpu=0.8 Vmaxpu=1.2 model=1 kW=18.86126075506778 kvar=2.6552255941697256 Phases=1 yearly=com_kw_14691_pu

New Load.load_p1ulv3199_2 conn=wye bus1=p1ulv3199.2 kV=0.12 Vminpu=0.8 Vmaxpu=1.2 model=1 kW=18.86126075506778 kvar=2.6552255941697256 Phases=1 yearly=com_kw_14691_pu

New Load.load_p1ulv3200_1 conn=wye bus1=p1ulv3199.1 kV=0.12 Vminpu=0.8 Vmaxpu=1.2 model=1 kW=6.03461733776689 kvar=2.630663684134301 Phases=1 yearly=com_kw_13217_pu

New Load.load_p1ulv3200_2 conn=wye bus1=p1ulv3199.2 kV=0.12 Vminpu=0.8 Vmaxpu=1.2 model=1 kW=6.03461733776689 kvar=2.630663684134301 Phases=1 yearly=com_kw_13217_pu

New Load.load_p1ulv3201_1 conn=wye bus1=p1ulv3201.1 kV=0.12 Vminpu=0.8 Vmaxpu=1.2 model=1 kW=18.86126075506778 kvar=2.6552255941697256 Phases=1 yearly=com_kw_14691_pu

New Load.load_p1ulv3201_2 conn=wye bus1=p1ulv3201.2 kV=0.12 Vminpu=0.8 Vmaxpu=1.2 model=1 kW=18.86126075506778 kvar=2.6552255941697256 Phases=1 yearly=com_kw_14691_pu

New Load.load_p1ulv3202_1 conn=wye bus1=p1ulv3201.1 kV=0.12 Vminpu=0.8 Vmaxpu=1.2 model=1 kW=11.023978021492514 kvar=1.3955425153209173 Phases=1 yearly=com_kw_15045_pu

New Load.load_p1ulv3202_2 conn=wye bus1=p1ulv3201.2 kV=0.12 Vminpu=0.8 Vmaxpu=1.2 model=1 kW=11.023978021492514 kvar=1.3955425153209173 Phases=1 yearly=com_kw_15045_pu

New Load.load_p1ulv3203_1 conn=wye bus1=p1ulv3203.1 kV=0.12 Vminpu=0.8 Vmaxpu=1.2 model=1 kW=3.098218363877214 kvar=0.7122653854230111 Phases=1 yearly=com_kw_12815_pu

New Load.load_p1ulv3203_2 conn=wye bus1=p1ulv3203.2 kV=0.12 Vminpu=0.8 Vmaxpu=1.2 model=1 kW=3.098218363877214 kvar=0.7122653854230111 Phases=1 yearly=com_kw_12815_pu

New Load.load_p1ulv3204_1 conn=wye bus1=p1ulv3203.1 kV=0.12 Vminpu=0.8 Vmaxpu=1.2 model=1 kW=3.098218363877214 kvar=0.7122653854230111 Phases=1 yearly=com_kw_12815_pu

New Load.load_p1ulv3204_2 conn=wye bus1=p1ulv3203.2 kV=0.12 Vminpu=0.8 Vmaxpu=1.2 model=1 kW=3.098218363877214 kvar=0.7122653854230111 Phases=1 yearly=com_kw_12815_pu

New Load.load_p1ulv3205_1 conn=wye bus1=p1ulv3205.1 kV=0.12 Vminpu=0.8 Vmaxpu=1.2 model=1 kW=3.098218363877214 kvar=0.7122653854230111 Phases=1 yearly=com_kw_12815_pu

New Load.load_p1ulv3205_2 conn=wye bus1=p1ulv3205.2 kV=0.12 Vminpu=0.8 Vmaxpu=1.2 model=1 kW=3.098218363877214 kvar=0.7122653854230111 Phases=1 yearly=com_kw_12815_pu

New Load.load_p1ulv3206_1 conn=wye bus1=p1ulv3206.1 kV=0.12 Vminpu=0.8 Vmaxpu=1.2 model=1 kW=8.467023921232082 kvar=1.428888419380381 Phases=1 yearly=com_kw_12896_pu

New Load.load_p1ulv3206_2 conn=wye bus1=p1ulv3206.2 kV=0.12 Vminpu=0.8 Vmaxpu=1.2 model=1 kW=8.467023921232082 kvar=1.428888419380381 Phases=1 yearly=com_kw_12896_pu

New Load.load_p1ulv3207_1 conn=wye bus1=p1ulv3206.1 kV=0.12 Vminpu=0.8 Vmaxpu=1.2 model=1 kW=3.098218363877214 kvar=0.7122653854230111 Phases=1 yearly=com_kw_12815_pu

New Load.load_p1ulv3207_2 conn=wye bus1=p1ulv3206.2 kV=0.12 Vminpu=0.8 Vmaxpu=1.2 model=1 kW=3.098218363877214 kvar=0.7122653854230111 Phases=1 yearly=com_kw_12815_pu

New Load.load_p1ulv3208_1 conn=wye bus1=p1ulv3208.1 kV=0.12 Vminpu=0.8 Vmaxpu=1.2 model=1 kW=11.023978021492514 kvar=1.3955425153209173 Phases=1 yearly=com_kw_15045_pu

New Load.load_p1ulv3208_2 conn=wye bus1=p1ulv3208.2 kV=0.12 Vminpu=0.8 Vmaxpu=1.2 model=1 kW=11.023978021492514 kvar=1.3955425153209173 Phases=1 yearly=com_kw_15045_pu

New Load.load_p1ulv3209_1 conn=wye bus1=p1ulv3208.1 kV=0.12 Vminpu=0.8 Vmaxpu=1.2 model=1 kW=3.098218363877214 kvar=0.7122653854230111 Phases=1 yearly=com_kw_12815_pu

New Load.load_p1ulv3209_2 conn=wye bus1=p1ulv3208.2 kV=0.12 Vminpu=0.8 Vmaxpu=1.2 model=1 kW=3.098218363877214 kvar=0.7122653854230111 Phases=1 yearly=com_kw_12815_pu

New Load.load_p1ulv3210_1 conn=wye bus1=p1ulv3210.1 kV=0.12 Vminpu=0.8 Vmaxpu=1.2 model=1 kW=8.467023921232082 kvar=1.428888419380381 Phases=1 yearly=com_kw_12896_pu

New Load.load_p1ulv3210_2 conn=wye bus1=p1ulv3210.2 kV=0.12 Vminpu=0.8 Vmaxpu=1.2 model=1 kW=8.467023921232082 kvar=1.428888419380381 Phases=1 yearly=com_kw_12896_pu

New Load.load_p1ulv3211_1 conn=wye bus1=p1ulv3211.1 kV=0.12 Vminpu=0.8 Vmaxpu=1.2 model=1 kW=6.262821178112299 kvar=2.7288626455695346 Phases=1 yearly=com_kw_14052_pu

New Load.load_p1ulv3211_2 conn=wye bus1=p1ulv3211.2 kV=0.12 Vminpu=0.8 Vmaxpu=1.2 model=1 kW=6.262821178112299 kvar=2.7288626455695346 Phases=1 yearly=com_kw_14052_pu

New Load.load_p1ulv3212 conn=wye bus1=p1ulv3212.1.2.3 kV=0.48 Vminpu=0.8 Vmaxpu=1.2 model=1 kW=34.95025902709327 kvar=12.584382652547053 Phases=3 yearly=com_kw_14942_pu

New Load.load_p1ulv3213_1 conn=wye bus1=p1ulv3213.1 kV=0.12 Vminpu=0.8 Vmaxpu=1.2 model=1 kW=18.86126075506778 kvar=2.6552255941697256 Phases=1 yearly=com_kw_14691_pu

New Load.load_p1ulv3213_2 conn=wye bus1=p1ulv3213.2 kV=0.12 Vminpu=0.8 Vmaxpu=1.2 model=1 kW=18.86126075506778 kvar=2.6552255941697256 Phases=1 yearly=com_kw_14691_pu

New Load.load_p1ulv3214 conn=wye bus1=p1ulv3214.1.2.3 kV=0.48 Vminpu=0.8 Vmaxpu=1.2 model=1 kW=34.005617991376155 kvar=7.203748974895467 Phases=3 yearly=com_kw_15118_pu

New Load.load_p1ulv3215_1 conn=wye bus1=p1ulv3215.1 kV=0.12 Vminpu=0.8 Vmaxpu=1.2 model=1 kW=7.660815908174812 kvar=2.950293364205208 Phases=1 yearly=com_kw_15001_pu

New Load.load_p1ulv3215_2 conn=wye bus1=p1ulv3215.2 kV=0.12 Vminpu=0.8 Vmaxpu=1.2 model=1 kW=7.660815908174812 kvar=2.950293364205208 Phases=1 yearly=com_kw_15001_pu

New Load.load_p1ulv3216_1 conn=wye bus1=p1ulv3215.1 kV=0.12 Vminpu=0.8 Vmaxpu=1.2 model=1 kW=10.129389326903564 kvar=1.8343655003706816 Phases=1 yearly=com_kw_15192_pu

New Load.load_p1ulv3216_2 conn=wye bus1=p1ulv3215.2 kV=0.12 Vminpu=0.8 Vmaxpu=1.2 model=1 kW=10.129389326903564 kvar=1.8343655003706816 Phases=1 yearly=com_kw_15192_pu

New Load.load_p1ulv3217_1 conn=wye bus1=p1ulv3217.1 kV=0.12 Vminpu=0.8 Vmaxpu=1.2 model=1 kW=8.467023921232082 kvar=1.428888419380381 Phases=1 yearly=com_kw_12896_pu

New Load.load_p1ulv3217_2 conn=wye bus1=p1ulv3217.2 kV=0.12 Vminpu=0.8 Vmaxpu=1.2 model=1 kW=8.467023921232082 kvar=1.428888419380381 Phases=1 yearly=com_kw_12896_pu

New Load.load_p1ulv3218 conn=wye bus1=p1ulv3218.1.2.3 kV=0.48 Vminpu=0.8 Vmaxpu=1.2 model=1 kW=44.29918903232506 kvar=11.286668375928098 Phases=3 yearly=com_kw_13114_pu

New Load.load_p1ulv3219_1 conn=wye bus1=p1ulv3219.1 kV=0.12 Vminpu=0.8 Vmaxpu=1.2 model=1 kW=3.098218363877214 kvar=0.7122653854230111 Phases=1 yearly=com_kw_12815_pu

New Load.load_p1ulv3219_2 conn=wye bus1=p1ulv3219.2 kV=0.12 Vminpu=0.8 Vmaxpu=1.2 model=1 kW=3.098218363877214 kvar=0.7122653854230111 Phases=1 yearly=com_kw_12815_pu

New Load.load_p1ulv3814_1 conn=wye bus1=p1ulv3814.1 kV=0.12 Vminpu=0.8 Vmaxpu=1.2 model=1 kW=5.1496269559453545 kvar=1.5323145223091108 Phases=1 yearly=com_kw_14231_pu

New Load.load_p1ulv3814_2 conn=wye bus1=p1ulv3814.2 kV=0.12 Vminpu=0.8 Vmaxpu=1.2 model=1 kW=5.1496269559453545 kvar=1.5323145223091108 Phases=1 yearly=com_kw_14231_pu

New Load.load_p1ulv3815_1 conn=wye bus1=p1ulv3815.1 kV=0.12 Vminpu=0.8 Vmaxpu=1.2 model=1 kW=13.251431311430247 kvar=0.1493407165487586 Phases=1 yearly=com_kw_14976_pu

New Load.load_p1ulv3815_2 conn=wye bus1=p1ulv3815.2 kV=0.12 Vminpu=0.8 Vmaxpu=1.2 model=1 kW=13.251431311430247 kvar=0.1493407165487586 Phases=1 yearly=com_kw_14976_pu

New Load.load_p1ulv3816_1 conn=wye bus1=p1ulv3816.1 kV=0.12 Vminpu=0.8 Vmaxpu=1.2 model=1 kW=1.8914832317680952 kvar=0.4701288429802831 Phases=1 yearly=com_kw_13018_pu

New Load.load_p1ulv3816_2 conn=wye bus1=p1ulv3816.2 kV=0.12 Vminpu=0.8 Vmaxpu=1.2 model=1 kW=1.8914832317680952 kvar=0.4701288429802831 Phases=1 yearly=com_kw_13018_pu

New Load.load_p1ulv3817_1 conn=wye bus1=p1ulv3817.1 kV=0.12 Vminpu=0.8 Vmaxpu=1.2 model=1 kW=1.8914832317680952 kvar=0.4701288429802831 Phases=1 yearly=com_kw_13018_pu

New Load.load_p1ulv3817_2 conn=wye bus1=p1ulv3817.2 kV=0.12 Vminpu=0.8 Vmaxpu=1.2 model=1 kW=1.8914832317680952 kvar=0.4701288429802831 Phases=1 yearly=com_kw_13018_pu

New Load.load_p1ulv3818_1 conn=wye bus1=p1ulv3818.1 kV=0.12 Vminpu=0.8 Vmaxpu=1.2 model=1 kW=13.251431311430247 kvar=0.1493407165487586 Phases=1 yearly=com_kw_14976_pu

New Load.load_p1ulv3818_2 conn=wye bus1=p1ulv3818.2 kV=0.12 Vminpu=0.8 Vmaxpu=1.2 model=1 kW=13.251431311430247 kvar=0.1493407165487586 Phases=1 yearly=com_kw_14976_pu

New Load.load_p1ulv3819_1 conn=wye bus1=p1ulv3819.1 kV=0.12 Vminpu=0.8 Vmaxpu=1.2 model=1 kW=1.8914832317680952 kvar=0.4701288429802831 Phases=1 yearly=com_kw_13018_pu

New Load.load_p1ulv3819_2 conn=wye bus1=p1ulv3819.2 kV=0.12 Vminpu=0.8 Vmaxpu=1.2 model=1 kW=1.8914832317680952 kvar=0.4701288429802831 Phases=1 yearly=com_kw_13018_pu

New Load.load_p1ulv3820_1 conn=wye bus1=p1ulv3820.1 kV=0.12 Vminpu=0.8 Vmaxpu=1.2 model=1 kW=1.8914832317680952 kvar=0.4701288429802831 Phases=1 yearly=com_kw_13018_pu

New Load.load_p1ulv3820_2 conn=wye bus1=p1ulv3820.2 kV=0.12 Vminpu=0.8 Vmaxpu=1.2 model=1 kW=1.8914832317680952 kvar=0.4701288429802831 Phases=1 yearly=com_kw_13018_pu

New Load.load_p1ulv3821_1 conn=wye bus1=p1ulv3821.1 kV=0.12 Vminpu=0.8 Vmaxpu=1.2 model=1 kW=1.8914832317680952 kvar=0.4701288429802831 Phases=1 yearly=com_kw_13018_pu

New Load.load_p1ulv3821_2 conn=wye bus1=p1ulv3821.2 kV=0.12 Vminpu=0.8 Vmaxpu=1.2 model=1 kW=1.8914832317680952 kvar=0.4701288429802831 Phases=1 yearly=com_kw_13018_pu

New Load.load_p1ulv3822_1 conn=wye bus1=p1ulv3822.1 kV=0.12 Vminpu=0.8 Vmaxpu=1.2 model=1 kW=5.096065176353652 kvar=0.20326988307277757 Phases=1 yearly=com_kw_14723_pu

New Load.load_p1ulv3822_2 conn=wye bus1=p1ulv3822.2 kV=0.12 Vminpu=0.8 Vmaxpu=1.2 model=1 kW=5.096065176353652 kvar=0.20326988307277757 Phases=1 yearly=com_kw_14723_pu

New Load.load_p1ulv4534_1 conn=wye bus1=p1ulv4534.1 kV=0.12 Vminpu=0.8 Vmaxpu=1.2 model=1 kW=4.788649591238137 kvar=1.023651375705972 Phases=1 yearly=res_kw_512_pu

New Load.load_p1ulv4534_2 conn=wye bus1=p1ulv4534.2 kV=0.12 Vminpu=0.8 Vmaxpu=1.2 model=1 kW=4.788649591238137 kvar=1.023651375705972 Phases=1 yearly=res_kw_512_pu

New Load.load_p1ulv4550_1 conn=wye bus1=p1ulv4550.1 kV=0.12 Vminpu=0.8 Vmaxpu=1.2 model=1 kW=3.469521951913567 kvar=0.9490620687569232 Phases=1 yearly=res_kw_825_pu

New Load.load_p1ulv4550_2 conn=wye bus1=p1ulv4550.2 kV=0.12 Vminpu=0.8 Vmaxpu=1.2 model=1 kW=3.469521951913567 kvar=0.9490620687569232 Phases=1 yearly=res_kw_825_pu

New Load.load_p1ulv4572_1 conn=wye bus1=p1ulv4572.1 kV=0.12 Vminpu=0.8 Vmaxpu=1.2 model=1 kW=5.436729579526792 kvar=1.2488470964899614 Phases=1 yearly=res_kw_454_pu

New Load.load_p1ulv4572_2 conn=wye bus1=p1ulv4572.2 kV=0.12 Vminpu=0.8 Vmaxpu=1.2 model=1 kW=5.436729579526792 kvar=1.2488470964899614 Phases=1 yearly=res_kw_454_pu

New Load.load_p1ulv4578_1 conn=wye bus1=p1ulv4578.1 kV=0.12 Vminpu=0.8 Vmaxpu=1.2 model=1 kW=4.78815623948431 kvar=1.2110296754961107 Phases=1 yearly=res_kw_842_pu

New Load.load_p1ulv4578_2 conn=wye bus1=p1ulv4578.2 kV=0.12 Vminpu=0.8 Vmaxpu=1.2 model=1 kW=4.78815623948431 kvar=1.2110296754961107 Phases=1 yearly=res_kw_842_pu

New Load.load_p1ulv4581_1 conn=wye bus1=p1ulv4581.1 kV=0.12 Vminpu=0.8 Vmaxpu=1.2 model=1 kW=3.3641909207712115 kvar=0.9284266244461494 Phases=1 yearly=res_kw_523_pu

New Load.load_p1ulv4581_2 conn=wye bus1=p1ulv4581.2 kV=0.12 Vminpu=0.8 Vmaxpu=1.2 model=1 kW=3.3641909207712115 kvar=0.9284266244461494 Phases=1 yearly=res_kw_523_pu

New Load.load_p1ulv4584_1 conn=wye bus1=p1ulv4584.1 kV=0.12 Vminpu=0.8 Vmaxpu=1.2 model=1 kW=6.121843752393233 kvar=1.8222876779408097 Phases=1 yearly=res_kw_1153_pu

New Load.load_p1ulv4584_2 conn=wye bus1=p1ulv4584.2 kV=0.12 Vminpu=0.8 Vmaxpu=1.2 model=1 kW=6.121843752393233 kvar=1.8222876779408097 Phases=1 yearly=res_kw_1153_pu

New Load.load_p1ulv4585_1 conn=wye bus1=p1ulv4585.1 kV=0.12 Vminpu=0.8 Vmaxpu=1.2 model=1 kW=4.315153527476089 kvar=1.1500690460008876 Phases=1 yearly=res_kw_305_pu

New Load.load_p1ulv4585_2 conn=wye bus1=p1ulv4585.2 kV=0.12 Vminpu=0.8 Vmaxpu=1.2 model=1 kW=4.315153527476089 kvar=1.1500690460008876 Phases=1 yearly=res_kw_305_pu

New Load.load_p1ulv4586_1 conn=wye bus1=p1ulv4586.1 kV=0.12 Vminpu=0.8 Vmaxpu=1.2 model=1 kW=1.3741353032147752 kvar=0.58237922359024 Phases=1 yearly=res_kw_1041_pu

New Load.load_p1ulv4586_2 conn=wye bus1=p1ulv4586.2 kV=0.12 Vminpu=0.8 Vmaxpu=1.2 model=1 kW=1.3741353032147752 kvar=0.58237922359024 Phases=1 yearly=res_kw_1041_pu

New Load.load_p1ulv4589_1 conn=wye bus1=p1ulv4589.1 kV=0.12 Vminpu=0.8 Vmaxpu=1.2 model=1 kW=5.020630418662337 kvar=1.4660260271132275 Phases=1 yearly=res_kw_664_pu

New Load.load_p1ulv4589_2 conn=wye bus1=p1ulv4589.2 kV=0.12 Vminpu=0.8 Vmaxpu=1.2 model=1 kW=5.020630418662337 kvar=1.4660260271132275 Phases=1 yearly=res_kw_664_pu

New Load.load_p1ulv4590_1 conn=wye bus1=p1ulv4590.1 kV=0.12 Vminpu=0.8 Vmaxpu=1.2 model=1 kW=4.889402611994926 kvar=1.0559288347164948 Phases=1 yearly=res_kw_1160_pu

New Load.load_p1ulv4590_2 conn=wye bus1=p1ulv4590.2 kV=0.12 Vminpu=0.8 Vmaxpu=1.2 model=1 kW=4.889402611994926 kvar=1.0559288347164948 Phases=1 yearly=res_kw_1160_pu

New Load.load_p1ulv4593_1 conn=wye bus1=p1ulv4593.1 kV=0.12 Vminpu=0.8 Vmaxpu=1.2 model=1 kW=5.675346369339635 kvar=1.238985226090579 Phases=1 yearly=res_kw_1186_pu

New Load.load_p1ulv4593_2 conn=wye bus1=p1ulv4593.2 kV=0.12 Vminpu=0.8 Vmaxpu=1.2 model=1 kW=5.675346369339635 kvar=1.238985226090579 Phases=1 yearly=res_kw_1186_pu

New Load.load_p1ulv4595_1 conn=wye bus1=p1ulv4595.1 kV=0.12 Vminpu=0.8 Vmaxpu=1.2 model=1 kW=3.0502193323758338 kvar=0.7068547525403183 Phases=1 yearly=res_kw_407_pu

New Load.load_p1ulv4595_2 conn=wye bus1=p1ulv4595.2 kV=0.12 Vminpu=0.8 Vmaxpu=1.2 model=1 kW=3.0502193323758338 kvar=0.7068547525403183 Phases=1 yearly=res_kw_407_pu

New Load.load_p1ulv4596_1 conn=wye bus1=p1ulv4596.1 kV=0.12 Vminpu=0.8 Vmaxpu=1.2 model=1 kW=2.1894046505184286 kvar=0.7281040757251952 Phases=1 yearly=res_kw_1042_pu

New Load.load_p1ulv4596_2 conn=wye bus1=p1ulv4596.2 kV=0.12 Vminpu=0.8 Vmaxpu=1.2 model=1 kW=2.1894046505184286 kvar=0.7281040757251952 Phases=1 yearly=res_kw_1042_pu

New Load.load_p1ulv4597_1 conn=wye bus1=p1ulv4597.1 kV=0.12 Vminpu=0.8 Vmaxpu=1.2 model=1 kW=5.163806898070874 kvar=0.9381412991116911 Phases=1 yearly=res_kw_98_pu

New Load.load_p1ulv4597_2 conn=wye bus1=p1ulv4597.2 kV=0.12 Vminpu=0.8 Vmaxpu=1.2 model=1 kW=5.163806898070874 kvar=0.9381412991116911 Phases=1 yearly=res_kw_98_pu

New Load.load_p1ulv4600_1 conn=wye bus1=p1ulv4600.1 kV=0.12 Vminpu=0.8 Vmaxpu=1.2 model=1 kW=3.7358442183619687 kvar=0.8837352156355889 Phases=1 yearly=res_kw_522_pu

New Load.load_p1ulv4600_2 conn=wye bus1=p1ulv4600.2 kV=0.12 Vminpu=0.8 Vmaxpu=1.2 model=1 kW=3.7358442183619687 kvar=0.8837352156355889 Phases=1 yearly=res_kw_522_pu

New Load.load_p1ulv4608_1 conn=wye bus1=p1ulv4608.1 kV=0.12 Vminpu=0.8 Vmaxpu=1.2 model=1 kW=1.8618983584330409 kvar=0.7337589993741062 Phases=1 yearly=res_kw_141_pu

New Load.load_p1ulv4608_2 conn=wye bus1=p1ulv4608.2 kV=0.12 Vminpu=0.8 Vmaxpu=1.2 model=1 kW=1.8618983584330409 kvar=0.7337589993741062 Phases=1 yearly=res_kw_141_pu

New Load.load_p1ulv4610_1 conn=wye bus1=p1ulv4610.1 kV=0.12 Vminpu=0.8 Vmaxpu=1.2 model=1 kW=2.1376631749204993 kvar=0.6218033466021168 Phases=1 yearly=res_kw_93_pu

New Load.load_p1ulv4610_2 conn=wye bus1=p1ulv4610.2 kV=0.12 Vminpu=0.8 Vmaxpu=1.2 model=1 kW=2.1376631749204993 kvar=0.6218033466021168 Phases=1 yearly=res_kw_93_pu

New Load.load_p1ulv4612_1 conn=wye bus1=p1ulv4612.1 kV=0.12 Vminpu=0.8 Vmaxpu=1.2 model=1 kW=4.359410160991208 kvar=0.7703346328307125 Phases=1 yearly=res_kw_470_pu

New Load.load_p1ulv4612_2 conn=wye bus1=p1ulv4612.2 kV=0.12 Vminpu=0.8 Vmaxpu=1.2 model=1 kW=4.359410160991208 kvar=0.7703346328307125 Phases=1 yearly=res_kw_470_pu

New Load.load_p1ulv4616_1 conn=wye bus1=p1ulv4616.1 kV=0.12 Vminpu=0.8 Vmaxpu=1.2 model=1 kW=2.6241521841182514 kvar=0.8429304779950015 Phases=1 yearly=res_kw_33_pu

New Load.load_p1ulv4616_2 conn=wye bus1=p1ulv4616.2 kV=0.12 Vminpu=0.8 Vmaxpu=1.2 model=1 kW=2.6241521841182514 kvar=0.8429304779950015 Phases=1 yearly=res_kw_33_pu

New Load.load_p1ulv4617_1 conn=wye bus1=p1ulv4617.1 kV=0.12 Vminpu=0.8 Vmaxpu=1.2 model=1 kW=5.675346369339635 kvar=1.238985226090579 Phases=1 yearly=res_kw_1186_pu

New Load.load_p1ulv4617_2 conn=wye bus1=p1ulv4617.2 kV=0.12 Vminpu=0.8 Vmaxpu=1.2 model=1 kW=5.675346369339635 kvar=1.238985226090579 Phases=1 yearly=res_kw_1186_pu

New Load.load_p1ulv4618_1 conn=wye bus1=p1ulv4618.1 kV=0.12 Vminpu=0.8 Vmaxpu=1.2 model=1 kW=4.78815623948431 kvar=1.2110296754961107 Phases=1 yearly=res_kw_842_pu

New Load.load_p1ulv4618_2 conn=wye bus1=p1ulv4618.2 kV=0.12 Vminpu=0.8 Vmaxpu=1.2 model=1 kW=4.78815623948431 kvar=1.2110296754961107 Phases=1 yearly=res_kw_842_pu

New Load.load_p1ulv4623_1 conn=wye bus1=p1ulv4623.1 kV=0.12 Vminpu=0.8 Vmaxpu=1.2 model=1 kW=7.259772519581312 kvar=1.3210086815250959 Phases=1 yearly=res_kw_128_pu

New Load.load_p1ulv4623_2 conn=wye bus1=p1ulv4623.2 kV=0.12 Vminpu=0.8 Vmaxpu=1.2 model=1 kW=7.259772519581312 kvar=1.3210086815250959 Phases=1 yearly=res_kw_128_pu

New Load.load_p1ulv4629_1 conn=wye bus1=p1ulv4629.1 kV=0.12 Vminpu=0.8 Vmaxpu=1.2 model=1 kW=2.6241521841182514 kvar=0.8429304779950015 Phases=1 yearly=res_kw_33_pu

New Load.load_p1ulv4629_2 conn=wye bus1=p1ulv4629.2 kV=0.12 Vminpu=0.8 Vmaxpu=1.2 model=1 kW=2.6241521841182514 kvar=0.8429304779950015 Phases=1 yearly=res_kw_33_pu

New Load.load_p1ulv4636_1 conn=wye bus1=p1ulv4636.1 kV=0.12 Vminpu=0.8 Vmaxpu=1.2 model=1 kW=7.235767165926777 kvar=2.6686267970114135 Phases=1 yearly=res_kw_652_pu

New Load.load_p1ulv4636_2 conn=wye bus1=p1ulv4636.2 kV=0.12 Vminpu=0.8 Vmaxpu=1.2 model=1 kW=7.235767165926777 kvar=2.6686267970114135 Phases=1 yearly=res_kw_652_pu

New Load.load_p1ulv4637_1 conn=wye bus1=p1ulv4637.1 kV=0.12 Vminpu=0.8 Vmaxpu=1.2 model=1 kW=2.47170658682663 kvar=0.5373197382437959 Phases=1 yearly=res_kw_39_pu

New Load.load_p1ulv4637_2 conn=wye bus1=p1ulv4637.2 kV=0.12 Vminpu=0.8 Vmaxpu=1.2 model=1 kW=2.47170658682663 kvar=0.5373197382437959 Phases=1 yearly=res_kw_39_pu

New Load.load_p1ulv4639_1 conn=wye bus1=p1ulv4639.1 kV=0.12 Vminpu=0.8 Vmaxpu=1.2 model=1 kW=1.6746299650392789 kvar=0.594727774010976 Phases=1 yearly=res_kw_1276_pu

New Load.load_p1ulv4639_2 conn=wye bus1=p1ulv4639.2 kV=0.12 Vminpu=0.8 Vmaxpu=1.2 model=1 kW=1.6746299650392789 kvar=0.594727774010976 Phases=1 yearly=res_kw_1276_pu

New Load.load_p1ulv4642_1 conn=wye bus1=p1ulv4642.1 kV=0.12 Vminpu=0.8 Vmaxpu=1.2 model=1 kW=3.469521951913567 kvar=0.9490620687569232 Phases=1 yearly=res_kw_825_pu

New Load.load_p1ulv4642_2 conn=wye bus1=p1ulv4642.2 kV=0.12 Vminpu=0.8 Vmaxpu=1.2 model=1 kW=3.469521951913567 kvar=0.9490620687569232 Phases=1 yearly=res_kw_825_pu

New Load.load_p1ulv4643_1 conn=wye bus1=p1ulv4643.1 kV=0.12 Vminpu=0.8 Vmaxpu=1.2 model=1 kW=7.088530083600876 kvar=2.6134476319600712 Phases=1 yearly=res_kw_267_pu

New Load.load_p1ulv4643_2 conn=wye bus1=p1ulv4643.2 kV=0.12 Vminpu=0.8 Vmaxpu=1.2 model=1 kW=7.088530083600876 kvar=2.6134476319600712 Phases=1 yearly=res_kw_267_pu

New Load.load_p1ulv5718 conn=wye bus1=p1ulv5718.1.2.3 kV=0.48 Vminpu=0.8 Vmaxpu=1.2 model=1 kW=27.323208517920715 kvar=7.318605452393258 Phases=3 yearly=com_kw_14356_pu

New Load.load_p1ulv5719_1 conn=wye bus1=p1ulv5719.1 kV=0.12 Vminpu=0.8 Vmaxpu=1.2 model=1 kW=5.574986239386177 kvar=0.24270326316758836 Phases=1 yearly=com_kw_13291_pu

New Load.load_p1ulv5719_2 conn=wye bus1=p1ulv5719.2 kV=0.12 Vminpu=0.8 Vmaxpu=1.2 model=1 kW=5.574986239386177 kvar=0.24270326316758836 Phases=1 yearly=com_kw_13291_pu

New Load.load_p1ulv5720_1 conn=wye bus1=p1ulv5720.1 kV=0.12 Vminpu=0.8 Vmaxpu=1.2 model=1 kW=6.369357935204193 kvar=1.7028657652545571 Phases=1 yearly=com_kw_14714_pu

New Load.load_p1ulv5720_2 conn=wye bus1=p1ulv5720.2 kV=0.12 Vminpu=0.8 Vmaxpu=1.2 model=1 kW=6.369357935204193 kvar=1.7028657652545571 Phases=1 yearly=com_kw_14714_pu

New Load.load_p1ulv5721 conn=wye bus1=p1ulv5721.1.2.3 kV=0.48 Vminpu=0.8 Vmaxpu=1.2 model=1 kW=51.623845470758255 kvar=4.282489459339675 Phases=3 yearly=com_kw_14868_pu

New Load.load_p1ulv5722_1 conn=wye bus1=p1ulv5722.1 kV=0.12 Vminpu=0.8 Vmaxpu=1.2 model=1 kW=5.866909996539198 kvar=1.7278302861049015 Phases=1 yearly=com_kw_14606_pu

New Load.load_p1ulv5722_2 conn=wye bus1=p1ulv5722.2 kV=0.12 Vminpu=0.8 Vmaxpu=1.2 model=1 kW=5.866909996539198 kvar=1.7278302861049015 Phases=1 yearly=com_kw_14606_pu

New Load.load_p1ulv5723_1 conn=wye bus1=p1ulv5723.1 kV=0.12 Vminpu=0.8 Vmaxpu=1.2 model=1 kW=6.396676457692917 kvar=1.810815616303918 Phases=1 yearly=com_kw_13837_pu

New Load.load_p1ulv5723_2 conn=wye bus1=p1ulv5723.2 kV=0.12 Vminpu=0.8 Vmaxpu=1.2 model=1 kW=6.396676457692917 kvar=1.810815616303918 Phases=1 yearly=com_kw_13837_pu

New Load.load_p1ulv6441_1 conn=wye bus1=p1ulv6441.1 kV=0.12 Vminpu=0.8 Vmaxpu=1.2 model=1 kW=3.469755020859998 kvar=0.8941520384931253 Phases=1 yearly=res_kw_4_pu

New Load.load_p1ulv6441_2 conn=wye bus1=p1ulv6441.2 kV=0.12 Vminpu=0.8 Vmaxpu=1.2 model=1 kW=3.469755020859998 kvar=0.8941520384931253 Phases=1 yearly=res_kw_4_pu
