New Loadshape.GSO_36.0721_-79.9153_45_180 npts= 35040 interval=0.25 mult = (file=../../../profiles/GSO_36.0721_-79.9153_45_180.csv) 

New Loadshape.GSO_36.0721_-79.9153_25_225 npts= 35040 interval=0.25 mult = (file=../../../profiles/GSO_36.0721_-79.9153_25_225.csv) 

New Loadshape.GSO_36.0352_-79.9153_25_270 npts= 35040 interval=0.25 mult = (file=../../../profiles/GSO_36.0352_-79.9153_25_270.csv) 

New Loadshape.GSO_36.0721_-79.9153_35_180 npts= 35040 interval=0.25 mult = (file=../../../profiles/GSO_36.0721_-79.9153_35_180.csv) 

New Loadshape.GSO_36.0721_-79.9153_35_90 npts= 35040 interval=0.25 mult = (file=../../../profiles/GSO_36.0721_-79.9153_35_90.csv) 

New Loadshape.GSO_36.0352_-79.9153_35_225 npts= 35040 interval=0.25 mult = (file=../../../profiles/GSO_36.0352_-79.9153_35_225.csv) 

New Loadshape.GSO_36.0721_-79.9153_15_180 npts= 35040 interval=0.25 mult = (file=../../../profiles/GSO_36.0721_-79.9153_15_180.csv) 

New Loadshape.GSO_36.0721_-79.9153_25_90 npts= 35040 interval=0.25 mult = (file=../../../profiles/GSO_36.0721_-79.9153_25_90.csv) 

New Loadshape.GSO_36.0721_-79.9153_25_135 npts= 35040 interval=0.25 mult = (file=../../../profiles/GSO_36.0721_-79.9153_25_135.csv) 

New Loadshape.GSO_36.0352_-79.9153_35_135 npts= 35040 interval=0.25 mult = (file=../../../profiles/GSO_36.0352_-79.9153_35_135.csv) 

New Loadshape.GSO_36.0352_-79.9153_25_225 npts= 35040 interval=0.25 mult = (file=../../../profiles/GSO_36.0352_-79.9153_25_225.csv) 

New Loadshape.GSO_36.0352_-79.9153_15_90 npts= 35040 interval=0.25 mult = (file=../../../profiles/GSO_36.0352_-79.9153_15_90.csv) 

New Loadshape.GSO_36.0721_-79.9153_15_270 npts= 35040 interval=0.25 mult = (file=../../../profiles/GSO_36.0721_-79.9153_15_270.csv) 

New Loadshape.GSO_36.0721_-79.9153_15_135 npts= 35040 interval=0.25 mult = (file=../../../profiles/GSO_36.0721_-79.9153_15_135.csv) 

New Loadshape.GSO_36.0352_-79.9153_25_135 npts= 35040 interval=0.25 mult = (file=../../../profiles/GSO_36.0352_-79.9153_25_135.csv) 

New Loadshape.GSO_36.0721_-79.9153_15_225 npts= 35040 interval=0.25 mult = (file=../../../profiles/GSO_36.0721_-79.9153_15_225.csv) 

New Loadshape.GSO_36.0352_-79.9153_15_180 npts= 35040 interval=0.25 mult = (file=../../../profiles/GSO_36.0352_-79.9153_15_180.csv) 

New Loadshape.GSO_36.0352_-79.9153_15_270 npts= 35040 interval=0.25 mult = (file=../../../profiles/GSO_36.0352_-79.9153_15_270.csv) 

New Loadshape.GSO_36.0352_-79.9153_35_90 npts= 35040 interval=0.25 mult = (file=../../../profiles/GSO_36.0352_-79.9153_35_90.csv) 

New Loadshape.GSO_36.0352_-79.9153_25_180 npts= 35040 interval=0.25 mult = (file=../../../profiles/GSO_36.0352_-79.9153_25_180.csv) 

New Loadshape.GSO_36.0721_-79.9153_25_180 npts= 35040 interval=0.25 mult = (file=../../../profiles/GSO_36.0721_-79.9153_25_180.csv) 

New Loadshape.GSO_36.0721_-79.9153_35_225 npts= 35040 interval=0.25 mult = (file=../../../profiles/GSO_36.0721_-79.9153_35_225.csv) 

New Loadshape.GSO_36.0352_-79.9153_45_180 npts= 35040 interval=0.25 mult = (file=../../../profiles/GSO_36.0352_-79.9153_45_180.csv) 

New Loadshape.GSO_36.0721_-79.9153_35_270 npts= 35040 interval=0.25 mult = (file=../../../profiles/GSO_36.0721_-79.9153_35_270.csv) 

New Loadshape.GSO_36.0721_-79.9153_15_90 npts= 35040 interval=0.25 mult = (file=../../../profiles/GSO_36.0721_-79.9153_15_90.csv) 

New Loadshape.GSO_36.0721_-79.9153_55_135 npts= 35040 interval=0.25 mult = (file=../../../profiles/GSO_36.0721_-79.9153_55_135.csv) 

New Loadshape.GSO_36.0352_-79.9153_45_135 npts= 35040 interval=0.25 mult = (file=../../../profiles/GSO_36.0352_-79.9153_45_135.csv) 

New Loadshape.GSO_36.0352_-79.9153_25_90 npts= 35040 interval=0.25 mult = (file=../../../profiles/GSO_36.0352_-79.9153_25_90.csv) 

New Loadshape.GSO_36.0721_-79.9153_25_270 npts= 35040 interval=0.25 mult = (file=../../../profiles/GSO_36.0721_-79.9153_25_270.csv) 

New Loadshape.GSO_36.0721_-79.9153_35_135 npts= 35040 interval=0.25 mult = (file=../../../profiles/GSO_36.0721_-79.9153_35_135.csv) 

New Loadshape.GSO_36.0721_-79.9153_45_135 npts= 35040 interval=0.25 mult = (file=../../../profiles/GSO_36.0721_-79.9153_45_135.csv) 

New Loadshape.GSO_36.0352_-79.9153_15_225 npts= 35040 interval=0.25 mult = (file=../../../profiles/GSO_36.0352_-79.9153_15_225.csv) 

New Loadshape.GSO_36.0721_-79.9153_45_90 npts= 35040 interval=0.25 mult = (file=../../../profiles/GSO_36.0721_-79.9153_45_90.csv) 

New Loadshape.GSO_36.0352_-79.9153_15_135 npts= 35040 interval=0.25 mult = (file=../../../profiles/GSO_36.0352_-79.9153_15_135.csv) 

New Loadshape.GSO_36.0721_-79.9153_45_270 npts= 35040 interval=0.25 mult = (file=../../../profiles/GSO_36.0721_-79.9153_45_270.csv) 

New Loadshape.GSO_36.0352_-79.9153_45_225 npts= 35040 interval=0.25 mult = (file=../../../profiles/GSO_36.0352_-79.9153_45_225.csv) 

New Loadshape.GSO_36.0721_-79.9153_45_225 npts= 35040 interval=0.25 mult = (file=../../../profiles/GSO_36.0721_-79.9153_45_225.csv) 

New Loadshape.GSO_36.0352_-79.9153_35_270 npts= 35040 interval=0.25 mult = (file=../../../profiles/GSO_36.0352_-79.9153_35_270.csv) 

New Loadshape.GSO_36.0352_-79.9153_55_180 npts= 35040 interval=0.25 mult = (file=../../../profiles/GSO_36.0352_-79.9153_55_180.csv) 

New Loadshape.GSO_36.0352_-79.9153_45_90 npts= 35040 interval=0.25 mult = (file=../../../profiles/GSO_36.0352_-79.9153_45_90.csv) 

New Loadshape.GSO_36.0352_-79.9153_45_270 npts= 35040 interval=0.25 mult = (file=../../../profiles/GSO_36.0352_-79.9153_45_270.csv) 

New Loadshape.GSO_36.0352_-79.9153_35_180 npts= 35040 interval=0.25 mult = (file=../../../profiles/GSO_36.0352_-79.9153_35_180.csv) 

New Loadshape.GSO_36.0352_-79.9153_55_225 npts= 35040 interval=0.25 mult = (file=../../../profiles/GSO_36.0352_-79.9153_55_225.csv) 

New Loadshape.GSO_36.0721_-79.9153_55_180 npts= 35040 interval=0.25 mult = (file=../../../profiles/GSO_36.0721_-79.9153_55_180.csv) 

New Loadshape.GSO_36.1090_-79.9153_25_270 npts= 35040 interval=0.25 mult = (file=../../../profiles/GSO_36.1090_-79.9153_25_270.csv) 

New Loadshape.GSO_36.1090_-79.9153_35_180 npts= 35040 interval=0.25 mult = (file=../../../profiles/GSO_36.1090_-79.9153_35_180.csv) 

New Loadshape.GSO_36.1090_-79.9153_25_225 npts= 35040 interval=0.25 mult = (file=../../../profiles/GSO_36.1090_-79.9153_25_225.csv) 

New Loadshape.GSO_36.1090_-79.9153_15_135 npts= 35040 interval=0.25 mult = (file=../../../profiles/GSO_36.1090_-79.9153_15_135.csv) 

New Loadshape.GSO_36.1090_-79.9153_15_225 npts= 35040 interval=0.25 mult = (file=../../../profiles/GSO_36.1090_-79.9153_15_225.csv) 

New Loadshape.GSO_36.1090_-79.9153_25_90 npts= 35040 interval=0.25 mult = (file=../../../profiles/GSO_36.1090_-79.9153_25_90.csv) 

New Loadshape.GSO_36.0721_-79.9153_55_225 npts= 35040 interval=0.25 mult = (file=../../../profiles/GSO_36.0721_-79.9153_55_225.csv) 

New Loadshape.GSO_36.1090_-79.9153_15_180 npts= 35040 interval=0.25 mult = (file=../../../profiles/GSO_36.1090_-79.9153_15_180.csv) 

New Loadshape.GSO_36.1090_-79.9153_15_270 npts= 35040 interval=0.25 mult = (file=../../../profiles/GSO_36.1090_-79.9153_15_270.csv) 

New Loadshape.GSO_36.1090_-79.9153_25_135 npts= 35040 interval=0.25 mult = (file=../../../profiles/GSO_36.1090_-79.9153_25_135.csv) 

New Loadshape.GSO_36.1090_-79.9153_35_90 npts= 35040 interval=0.25 mult = (file=../../../profiles/GSO_36.1090_-79.9153_35_90.csv) 

New Loadshape.GSO_36.1090_-79.9153_35_270 npts= 35040 interval=0.25 mult = (file=../../../profiles/GSO_36.1090_-79.9153_35_270.csv) 

New Loadshape.GSO_36.1090_-79.9153_25_180 npts= 35040 interval=0.25 mult = (file=../../../profiles/GSO_36.1090_-79.9153_25_180.csv) 

New Loadshape.GSO_36.1090_-79.9153_15_90 npts= 35040 interval=0.25 mult = (file=../../../profiles/GSO_36.1090_-79.9153_15_90.csv) 

New Loadshape.GSO_36.1090_-79.9153_35_135 npts= 35040 interval=0.25 mult = (file=../../../profiles/GSO_36.1090_-79.9153_35_135.csv) 

New Loadshape.GSO_36.1090_-79.9153_45_180 npts= 35040 interval=0.25 mult = (file=../../../profiles/GSO_36.1090_-79.9153_45_180.csv) 

New Loadshape.GSO_36.1090_-79.9153_35_225 npts= 35040 interval=0.25 mult = (file=../../../profiles/GSO_36.1090_-79.9153_35_225.csv) 

New Loadshape.GSO_36.1090_-79.9153_55_225 npts= 35040 interval=0.25 mult = (file=../../../profiles/GSO_36.1090_-79.9153_55_225.csv) 

New Loadshape.GSO_36.1090_-79.9153_45_135 npts= 35040 interval=0.25 mult = (file=../../../profiles/GSO_36.1090_-79.9153_45_135.csv) 

New Loadshape.GSO_36.1090_-79.9153_45_90 npts= 35040 interval=0.25 mult = (file=../../../profiles/GSO_36.1090_-79.9153_45_90.csv) 

New Loadshape.GSO_36.1090_-79.9153_45_270 npts= 35040 interval=0.25 mult = (file=../../../profiles/GSO_36.1090_-79.9153_45_270.csv) 

New Loadshape.GSO_36.1090_-79.9153_45_225 npts= 35040 interval=0.25 mult = (file=../../../profiles/GSO_36.1090_-79.9153_45_225.csv) 

New Loadshape.GSO_36.1090_-79.9153_55_270 npts= 35040 interval=0.25 mult = (file=../../../profiles/GSO_36.1090_-79.9153_55_270.csv) 

New Loadshape.GSO_36.1090_-79.9153_55_180 npts= 35040 interval=0.25 mult = (file=../../../profiles/GSO_36.1090_-79.9153_55_180.csv) 

New Loadshape.GSO_36.1090_-79.9153_55_135 npts= 35040 interval=0.25 mult = (file=../../../profiles/GSO_36.1090_-79.9153_55_135.csv) 

New Loadshape.GSO_35.9984_-79.9153_15_180 npts= 35040 interval=0.25 mult = (file=../../../profiles/GSO_35.9984_-79.9153_15_180.csv) 

New Loadshape.GSO_35.9984_-79.9153_25_270 npts= 35040 interval=0.25 mult = (file=../../../profiles/GSO_35.9984_-79.9153_25_270.csv) 

New Loadshape.GSO_35.9984_-79.9153_15_135 npts= 35040 interval=0.25 mult = (file=../../../profiles/GSO_35.9984_-79.9153_15_135.csv) 

New Loadshape.GSO_35.9984_-79.9153_35_90 npts= 35040 interval=0.25 mult = (file=../../../profiles/GSO_35.9984_-79.9153_35_90.csv) 

New Loadshape.GSO_35.9984_-79.9153_25_135 npts= 35040 interval=0.25 mult = (file=../../../profiles/GSO_35.9984_-79.9153_25_135.csv) 

New Loadshape.GSO_35.9984_-79.9153_45_180 npts= 35040 interval=0.25 mult = (file=../../../profiles/GSO_35.9984_-79.9153_45_180.csv) 

New Loadshape.GSO_35.9984_-79.9153_35_270 npts= 35040 interval=0.25 mult = (file=../../../profiles/GSO_35.9984_-79.9153_35_270.csv) 

New Loadshape.GSO_35.9984_-79.9153_15_270 npts= 35040 interval=0.25 mult = (file=../../../profiles/GSO_35.9984_-79.9153_15_270.csv) 

New Loadshape.GSO_35.9984_-79.9153_15_90 npts= 35040 interval=0.25 mult = (file=../../../profiles/GSO_35.9984_-79.9153_15_90.csv) 

New Loadshape.GSO_35.9984_-79.9153_25_90 npts= 35040 interval=0.25 mult = (file=../../../profiles/GSO_35.9984_-79.9153_25_90.csv) 

New Loadshape.GSO_35.9984_-79.9153_15_225 npts= 35040 interval=0.25 mult = (file=../../../profiles/GSO_35.9984_-79.9153_15_225.csv) 

New Loadshape.GSO_35.9984_-79.9153_35_225 npts= 35040 interval=0.25 mult = (file=../../../profiles/GSO_35.9984_-79.9153_35_225.csv) 

New Loadshape.GSO_35.9984_-79.9153_25_180 npts= 35040 interval=0.25 mult = (file=../../../profiles/GSO_35.9984_-79.9153_25_180.csv) 

New Loadshape.GSO_35.9984_-79.9153_35_180 npts= 35040 interval=0.25 mult = (file=../../../profiles/GSO_35.9984_-79.9153_35_180.csv) 

New Loadshape.GSO_35.9984_-79.9153_45_225 npts= 35040 interval=0.25 mult = (file=../../../profiles/GSO_35.9984_-79.9153_45_225.csv) 

New Loadshape.GSO_35.9984_-79.9153_25_225 npts= 35040 interval=0.25 mult = (file=../../../profiles/GSO_35.9984_-79.9153_25_225.csv) 

New Loadshape.GSO_35.9984_-79.9153_35_135 npts= 35040 interval=0.25 mult = (file=../../../profiles/GSO_35.9984_-79.9153_35_135.csv) 

New Loadshape.GSO_35.9984_-79.9153_45_135 npts= 35040 interval=0.25 mult = (file=../../../profiles/GSO_35.9984_-79.9153_45_135.csv) 

New Loadshape.GSO_35.9984_-79.9153_45_90 npts= 35040 interval=0.25 mult = (file=../../../profiles/GSO_35.9984_-79.9153_45_90.csv) 

New Loadshape.GSO_35.9984_-79.9153_45_270 npts= 35040 interval=0.25 mult = (file=../../../profiles/GSO_35.9984_-79.9153_45_270.csv) 

New Loadshape.GSO_35.9984_-79.9153_55_135 npts= 35040 interval=0.25 mult = (file=../../../profiles/GSO_35.9984_-79.9153_55_135.csv) 

New Loadshape.GSO_36.0352_-79.9153_55_135 npts= 35040 interval=0.25 mult = (file=../../../profiles/GSO_36.0352_-79.9153_55_135.csv) 

New Loadshape.GSO_36.0352_-79.9153_55_270 npts= 35040 interval=0.25 mult = (file=../../../profiles/GSO_36.0352_-79.9153_55_270.csv) 

New Loadshape.GSO_36.0721_-79.9153_55_90 npts= 35040 interval=0.25 mult = (file=../../../profiles/GSO_36.0721_-79.9153_55_90.csv) 

New Loadshape.GSO_36.1090_-79.9153_55_90 npts= 35040 interval=0.25 mult = (file=../../../profiles/GSO_36.1090_-79.9153_55_90.csv) 

New Loadshape.GSO_36.0352_-79.9153_55_90 npts= 35040 interval=0.25 mult = (file=../../../profiles/GSO_36.0352_-79.9153_55_90.csv) 

New Loadshape.GSO_35.9984_-79.9153_55_90 npts= 35040 interval=0.25 mult = (file=../../../profiles/GSO_35.9984_-79.9153_55_90.csv) 

New Loadshape.GSO_36.0721_-79.9153_55_270 npts= 35040 interval=0.25 mult = (file=../../../profiles/GSO_36.0721_-79.9153_55_270.csv) 

New Loadshape.GSO_35.9984_-79.9153_55_180 npts= 35040 interval=0.25 mult = (file=../../../profiles/GSO_35.9984_-79.9153_55_180.csv) 

New Loadshape.GSO_35.9984_-79.9153_55_225 npts= 35040 interval=0.25 mult = (file=../../../profiles/GSO_35.9984_-79.9153_55_225.csv) 

New Loadshape.GSO_35.9984_-79.9153_55_270 npts= 35040 interval=0.25 mult = (file=../../../profiles/GSO_35.9984_-79.9153_55_270.csv) 

New Loadshape.res_kw_523_pu npts= 35040 interval=0.25 mult = (file=../../../profiles/res_kw_523_pu.csv)  qmult = (file=../../../profiles/res_kvar_523_pu.csv)

New Loadshape.res_kw_748_pu npts= 35040 interval=0.25 mult = (file=../../../profiles/res_kw_748_pu.csv)  qmult = (file=../../../profiles/res_kvar_748_pu.csv)

New Loadshape.res_kw_162_pu npts= 35040 interval=0.25 mult = (file=../../../profiles/res_kw_162_pu.csv)  qmult = (file=../../../profiles/res_kvar_162_pu.csv)

New Loadshape.res_kw_842_pu npts= 35040 interval=0.25 mult = (file=../../../profiles/res_kw_842_pu.csv)  qmult = (file=../../../profiles/res_kvar_842_pu.csv)

New Loadshape.res_kw_512_pu npts= 35040 interval=0.25 mult = (file=../../../profiles/res_kw_512_pu.csv)  qmult = (file=../../../profiles/res_kvar_512_pu.csv)

New Loadshape.res_kw_314_pu npts= 35040 interval=0.25 mult = (file=../../../profiles/res_kw_314_pu.csv)  qmult = (file=../../../profiles/res_kvar_314_pu.csv)

New Loadshape.res_kw_670_pu npts= 35040 interval=0.25 mult = (file=../../../profiles/res_kw_670_pu.csv)  qmult = (file=../../../profiles/res_kvar_670_pu.csv)

New Loadshape.res_kw_46_pu npts= 35040 interval=0.25 mult = (file=../../../profiles/res_kw_46_pu.csv)  qmult = (file=../../../profiles/res_kvar_46_pu.csv)

New Loadshape.res_kw_1037_pu npts= 35040 interval=0.25 mult = (file=../../../profiles/res_kw_1037_pu.csv)  qmult = (file=../../../profiles/res_kvar_1037_pu.csv)

New Loadshape.res_kw_33_pu npts= 35040 interval=0.25 mult = (file=../../../profiles/res_kw_33_pu.csv)  qmult = (file=../../../profiles/res_kvar_33_pu.csv)

New Loadshape.res_kw_93_pu npts= 35040 interval=0.25 mult = (file=../../../profiles/res_kw_93_pu.csv)  qmult = (file=../../../profiles/res_kvar_93_pu.csv)

New Loadshape.res_kw_409_pu npts= 35040 interval=0.25 mult = (file=../../../profiles/res_kw_409_pu.csv)  qmult = (file=../../../profiles/res_kvar_409_pu.csv)

New Loadshape.res_kw_1258_pu npts= 35040 interval=0.25 mult = (file=../../../profiles/res_kw_1258_pu.csv)  qmult = (file=../../../profiles/res_kvar_1258_pu.csv)

New Loadshape.res_kw_1283_pu npts= 35040 interval=0.25 mult = (file=../../../profiles/res_kw_1283_pu.csv)  qmult = (file=../../../profiles/res_kvar_1283_pu.csv)

New Loadshape.res_kw_933_pu npts= 35040 interval=0.25 mult = (file=../../../profiles/res_kw_933_pu.csv)  qmult = (file=../../../profiles/res_kvar_933_pu.csv)

New Loadshape.res_kw_517_pu npts= 35040 interval=0.25 mult = (file=../../../profiles/res_kw_517_pu.csv)  qmult = (file=../../../profiles/res_kvar_517_pu.csv)

New Loadshape.res_kw_887_pu npts= 35040 interval=0.25 mult = (file=../../../profiles/res_kw_887_pu.csv)  qmult = (file=../../../profiles/res_kvar_887_pu.csv)

New Loadshape.res_kw_1149_pu npts= 35040 interval=0.25 mult = (file=../../../profiles/res_kw_1149_pu.csv)  qmult = (file=../../../profiles/res_kvar_1149_pu.csv)

New Loadshape.res_kw_1054_pu npts= 35040 interval=0.25 mult = (file=../../../profiles/res_kw_1054_pu.csv)  qmult = (file=../../../profiles/res_kvar_1054_pu.csv)

New Loadshape.res_kw_884_pu npts= 35040 interval=0.25 mult = (file=../../../profiles/res_kw_884_pu.csv)  qmult = (file=../../../profiles/res_kvar_884_pu.csv)

New Loadshape.res_kw_752_pu npts= 35040 interval=0.25 mult = (file=../../../profiles/res_kw_752_pu.csv)  qmult = (file=../../../profiles/res_kvar_752_pu.csv)

New Loadshape.res_kw_532_pu npts= 35040 interval=0.25 mult = (file=../../../profiles/res_kw_532_pu.csv)  qmult = (file=../../../profiles/res_kvar_532_pu.csv)

New Loadshape.res_kw_1267_pu npts= 35040 interval=0.25 mult = (file=../../../profiles/res_kw_1267_pu.csv)  qmult = (file=../../../profiles/res_kvar_1267_pu.csv)

New Loadshape.res_kw_691_pu npts= 35040 interval=0.25 mult = (file=../../../profiles/res_kw_691_pu.csv)  qmult = (file=../../../profiles/res_kvar_691_pu.csv)

New Loadshape.res_kw_1256_pu npts= 35040 interval=0.25 mult = (file=../../../profiles/res_kw_1256_pu.csv)  qmult = (file=../../../profiles/res_kvar_1256_pu.csv)

New Loadshape.res_kw_1041_pu npts= 35040 interval=0.25 mult = (file=../../../profiles/res_kw_1041_pu.csv)  qmult = (file=../../../profiles/res_kvar_1041_pu.csv)

New Loadshape.res_kw_1083_pu npts= 35040 interval=0.25 mult = (file=../../../profiles/res_kw_1083_pu.csv)  qmult = (file=../../../profiles/res_kvar_1083_pu.csv)

New Loadshape.res_kw_505_pu npts= 35040 interval=0.25 mult = (file=../../../profiles/res_kw_505_pu.csv)  qmult = (file=../../../profiles/res_kvar_505_pu.csv)

New Loadshape.res_kw_829_pu npts= 35040 interval=0.25 mult = (file=../../../profiles/res_kw_829_pu.csv)  qmult = (file=../../../profiles/res_kvar_829_pu.csv)

New Loadshape.res_kw_457_pu npts= 35040 interval=0.25 mult = (file=../../../profiles/res_kw_457_pu.csv)  qmult = (file=../../../profiles/res_kvar_457_pu.csv)

New Loadshape.res_kw_1067_pu npts= 35040 interval=0.25 mult = (file=../../../profiles/res_kw_1067_pu.csv)  qmult = (file=../../../profiles/res_kvar_1067_pu.csv)

New Loadshape.res_kw_416_pu npts= 35040 interval=0.25 mult = (file=../../../profiles/res_kw_416_pu.csv)  qmult = (file=../../../profiles/res_kvar_416_pu.csv)

New Loadshape.res_kw_689_pu npts= 35040 interval=0.25 mult = (file=../../../profiles/res_kw_689_pu.csv)  qmult = (file=../../../profiles/res_kvar_689_pu.csv)

New Loadshape.res_kw_209_pu npts= 35040 interval=0.25 mult = (file=../../../profiles/res_kw_209_pu.csv)  qmult = (file=../../../profiles/res_kvar_209_pu.csv)

New Loadshape.res_kw_182_pu npts= 35040 interval=0.25 mult = (file=../../../profiles/res_kw_182_pu.csv)  qmult = (file=../../../profiles/res_kvar_182_pu.csv)

New Loadshape.res_kw_1042_pu npts= 35040 interval=0.25 mult = (file=../../../profiles/res_kw_1042_pu.csv)  qmult = (file=../../../profiles/res_kvar_1042_pu.csv)

New Loadshape.res_kw_1186_pu npts= 35040 interval=0.25 mult = (file=../../../profiles/res_kw_1186_pu.csv)  qmult = (file=../../../profiles/res_kvar_1186_pu.csv)

New Loadshape.res_kw_278_pu npts= 35040 interval=0.25 mult = (file=../../../profiles/res_kw_278_pu.csv)  qmult = (file=../../../profiles/res_kvar_278_pu.csv)

New Loadshape.res_kw_664_pu npts= 35040 interval=0.25 mult = (file=../../../profiles/res_kw_664_pu.csv)  qmult = (file=../../../profiles/res_kvar_664_pu.csv)

New Loadshape.res_kw_470_pu npts= 35040 interval=0.25 mult = (file=../../../profiles/res_kw_470_pu.csv)  qmult = (file=../../../profiles/res_kvar_470_pu.csv)

New Loadshape.res_kw_707_pu npts= 35040 interval=0.25 mult = (file=../../../profiles/res_kw_707_pu.csv)  qmult = (file=../../../profiles/res_kvar_707_pu.csv)

New Loadshape.res_kw_822_pu npts= 35040 interval=0.25 mult = (file=../../../profiles/res_kw_822_pu.csv)  qmult = (file=../../../profiles/res_kvar_822_pu.csv)

New Loadshape.res_kw_621_pu npts= 35040 interval=0.25 mult = (file=../../../profiles/res_kw_621_pu.csv)  qmult = (file=../../../profiles/res_kvar_621_pu.csv)

New Loadshape.res_kw_205_pu npts= 35040 interval=0.25 mult = (file=../../../profiles/res_kw_205_pu.csv)  qmult = (file=../../../profiles/res_kvar_205_pu.csv)

New Loadshape.res_kw_24_pu npts= 35040 interval=0.25 mult = (file=../../../profiles/res_kw_24_pu.csv)  qmult = (file=../../../profiles/res_kvar_24_pu.csv)

New Loadshape.res_kw_141_pu npts= 35040 interval=0.25 mult = (file=../../../profiles/res_kw_141_pu.csv)  qmult = (file=../../../profiles/res_kvar_141_pu.csv)

New Loadshape.res_kw_452_pu npts= 35040 interval=0.25 mult = (file=../../../profiles/res_kw_452_pu.csv)  qmult = (file=../../../profiles/res_kvar_452_pu.csv)

New Loadshape.res_kw_626_pu npts= 35040 interval=0.25 mult = (file=../../../profiles/res_kw_626_pu.csv)  qmult = (file=../../../profiles/res_kvar_626_pu.csv)

New Loadshape.res_kw_421_pu npts= 35040 interval=0.25 mult = (file=../../../profiles/res_kw_421_pu.csv)  qmult = (file=../../../profiles/res_kvar_421_pu.csv)

New Loadshape.res_kw_461_pu npts= 35040 interval=0.25 mult = (file=../../../profiles/res_kw_461_pu.csv)  qmult = (file=../../../profiles/res_kvar_461_pu.csv)

New Loadshape.res_kw_119_pu npts= 35040 interval=0.25 mult = (file=../../../profiles/res_kw_119_pu.csv)  qmult = (file=../../../profiles/res_kvar_119_pu.csv)

New Loadshape.res_kw_240_pu npts= 35040 interval=0.25 mult = (file=../../../profiles/res_kw_240_pu.csv)  qmult = (file=../../../profiles/res_kvar_240_pu.csv)

New Loadshape.res_kw_1115_pu npts= 35040 interval=0.25 mult = (file=../../../profiles/res_kw_1115_pu.csv)  qmult = (file=../../../profiles/res_kvar_1115_pu.csv)

New Loadshape.res_kw_1276_pu npts= 35040 interval=0.25 mult = (file=../../../profiles/res_kw_1276_pu.csv)  qmult = (file=../../../profiles/res_kvar_1276_pu.csv)

New Loadshape.res_kw_514_pu npts= 35040 interval=0.25 mult = (file=../../../profiles/res_kw_514_pu.csv)  qmult = (file=../../../profiles/res_kvar_514_pu.csv)

New Loadshape.res_kw_1153_pu npts= 35040 interval=0.25 mult = (file=../../../profiles/res_kw_1153_pu.csv)  qmult = (file=../../../profiles/res_kvar_1153_pu.csv)

New Loadshape.res_kw_526_pu npts= 35040 interval=0.25 mult = (file=../../../profiles/res_kw_526_pu.csv)  qmult = (file=../../../profiles/res_kvar_526_pu.csv)

New Loadshape.res_kw_280_pu npts= 35040 interval=0.25 mult = (file=../../../profiles/res_kw_280_pu.csv)  qmult = (file=../../../profiles/res_kvar_280_pu.csv)

New Loadshape.res_kw_208_pu npts= 35040 interval=0.25 mult = (file=../../../profiles/res_kw_208_pu.csv)  qmult = (file=../../../profiles/res_kvar_208_pu.csv)

New Loadshape.res_kw_40_pu npts= 35040 interval=0.25 mult = (file=../../../profiles/res_kw_40_pu.csv)  qmult = (file=../../../profiles/res_kvar_40_pu.csv)

New Loadshape.res_kw_148_pu npts= 35040 interval=0.25 mult = (file=../../../profiles/res_kw_148_pu.csv)  qmult = (file=../../../profiles/res_kvar_148_pu.csv)

New Loadshape.res_kw_1270_pu npts= 35040 interval=0.25 mult = (file=../../../profiles/res_kw_1270_pu.csv)  qmult = (file=../../../profiles/res_kvar_1270_pu.csv)

New Loadshape.res_kw_1173_pu npts= 35040 interval=0.25 mult = (file=../../../profiles/res_kw_1173_pu.csv)  qmult = (file=../../../profiles/res_kvar_1173_pu.csv)

New Loadshape.res_kw_1205_pu npts= 35040 interval=0.25 mult = (file=../../../profiles/res_kw_1205_pu.csv)  qmult = (file=../../../profiles/res_kvar_1205_pu.csv)

New Loadshape.res_kw_1066_pu npts= 35040 interval=0.25 mult = (file=../../../profiles/res_kw_1066_pu.csv)  qmult = (file=../../../profiles/res_kvar_1066_pu.csv)

New Loadshape.res_kw_863_pu npts= 35040 interval=0.25 mult = (file=../../../profiles/res_kw_863_pu.csv)  qmult = (file=../../../profiles/res_kvar_863_pu.csv)

New Loadshape.res_kw_263_pu npts= 35040 interval=0.25 mult = (file=../../../profiles/res_kw_263_pu.csv)  qmult = (file=../../../profiles/res_kvar_263_pu.csv)

New Loadshape.res_kw_4_pu npts= 35040 interval=0.25 mult = (file=../../../profiles/res_kw_4_pu.csv)  qmult = (file=../../../profiles/res_kvar_4_pu.csv)

New Loadshape.res_kw_507_pu npts= 35040 interval=0.25 mult = (file=../../../profiles/res_kw_507_pu.csv)  qmult = (file=../../../profiles/res_kvar_507_pu.csv)

New Loadshape.res_kw_914_pu npts= 35040 interval=0.25 mult = (file=../../../profiles/res_kw_914_pu.csv)  qmult = (file=../../../profiles/res_kvar_914_pu.csv)

New Loadshape.res_kw_894_pu npts= 35040 interval=0.25 mult = (file=../../../profiles/res_kw_894_pu.csv)  qmult = (file=../../../profiles/res_kvar_894_pu.csv)

New Loadshape.res_kw_225_pu npts= 35040 interval=0.25 mult = (file=../../../profiles/res_kw_225_pu.csv)  qmult = (file=../../../profiles/res_kvar_225_pu.csv)

New Loadshape.res_kw_407_pu npts= 35040 interval=0.25 mult = (file=../../../profiles/res_kw_407_pu.csv)  qmult = (file=../../../profiles/res_kvar_407_pu.csv)

New Loadshape.res_kw_504_pu npts= 35040 interval=0.25 mult = (file=../../../profiles/res_kw_504_pu.csv)  qmult = (file=../../../profiles/res_kvar_504_pu.csv)

New Loadshape.res_kw_843_pu npts= 35040 interval=0.25 mult = (file=../../../profiles/res_kw_843_pu.csv)  qmult = (file=../../../profiles/res_kvar_843_pu.csv)

New Loadshape.res_kw_1157_pu npts= 35040 interval=0.25 mult = (file=../../../profiles/res_kw_1157_pu.csv)  qmult = (file=../../../profiles/res_kvar_1157_pu.csv)

New Loadshape.res_kw_796_pu npts= 35040 interval=0.25 mult = (file=../../../profiles/res_kw_796_pu.csv)  qmult = (file=../../../profiles/res_kvar_796_pu.csv)

New Loadshape.res_kw_695_pu npts= 35040 interval=0.25 mult = (file=../../../profiles/res_kw_695_pu.csv)  qmult = (file=../../../profiles/res_kvar_695_pu.csv)

New Loadshape.res_kw_595_pu npts= 35040 interval=0.25 mult = (file=../../../profiles/res_kw_595_pu.csv)  qmult = (file=../../../profiles/res_kvar_595_pu.csv)

New Loadshape.res_kw_1036_pu npts= 35040 interval=0.25 mult = (file=../../../profiles/res_kw_1036_pu.csv)  qmult = (file=../../../profiles/res_kvar_1036_pu.csv)

New Loadshape.res_kw_1181_pu npts= 35040 interval=0.25 mult = (file=../../../profiles/res_kw_1181_pu.csv)  qmult = (file=../../../profiles/res_kvar_1181_pu.csv)

New Loadshape.res_kw_598_pu npts= 35040 interval=0.25 mult = (file=../../../profiles/res_kw_598_pu.csv)  qmult = (file=../../../profiles/res_kvar_598_pu.csv)

New Loadshape.res_kw_625_pu npts= 35040 interval=0.25 mult = (file=../../../profiles/res_kw_625_pu.csv)  qmult = (file=../../../profiles/res_kvar_625_pu.csv)

New Loadshape.res_kw_250_pu npts= 35040 interval=0.25 mult = (file=../../../profiles/res_kw_250_pu.csv)  qmult = (file=../../../profiles/res_kvar_250_pu.csv)

New Loadshape.res_kw_645_pu npts= 35040 interval=0.25 mult = (file=../../../profiles/res_kw_645_pu.csv)  qmult = (file=../../../profiles/res_kvar_645_pu.csv)

New Loadshape.res_kw_627_pu npts= 35040 interval=0.25 mult = (file=../../../profiles/res_kw_627_pu.csv)  qmult = (file=../../../profiles/res_kvar_627_pu.csv)

New Loadshape.res_kw_76_pu npts= 35040 interval=0.25 mult = (file=../../../profiles/res_kw_76_pu.csv)  qmult = (file=../../../profiles/res_kvar_76_pu.csv)

New Loadshape.res_kw_1104_pu npts= 35040 interval=0.25 mult = (file=../../../profiles/res_kw_1104_pu.csv)  qmult = (file=../../../profiles/res_kvar_1104_pu.csv)

New Loadshape.res_kw_1160_pu npts= 35040 interval=0.25 mult = (file=../../../profiles/res_kw_1160_pu.csv)  qmult = (file=../../../profiles/res_kvar_1160_pu.csv)

New Loadshape.res_kw_380_pu npts= 35040 interval=0.25 mult = (file=../../../profiles/res_kw_380_pu.csv)  qmult = (file=../../../profiles/res_kvar_380_pu.csv)

New Loadshape.res_kw_1155_pu npts= 35040 interval=0.25 mult = (file=../../../profiles/res_kw_1155_pu.csv)  qmult = (file=../../../profiles/res_kvar_1155_pu.csv)

New Loadshape.res_kw_1228_pu npts= 35040 interval=0.25 mult = (file=../../../profiles/res_kw_1228_pu.csv)  qmult = (file=../../../profiles/res_kvar_1228_pu.csv)

New Loadshape.res_kw_229_pu npts= 35040 interval=0.25 mult = (file=../../../profiles/res_kw_229_pu.csv)  qmult = (file=../../../profiles/res_kvar_229_pu.csv)

New Loadshape.res_kw_97_pu npts= 35040 interval=0.25 mult = (file=../../../profiles/res_kw_97_pu.csv)  qmult = (file=../../../profiles/res_kvar_97_pu.csv)

New Loadshape.res_kw_1273_pu npts= 35040 interval=0.25 mult = (file=../../../profiles/res_kw_1273_pu.csv)  qmult = (file=../../../profiles/res_kvar_1273_pu.csv)

New Loadshape.res_kw_355_pu npts= 35040 interval=0.25 mult = (file=../../../profiles/res_kw_355_pu.csv)  qmult = (file=../../../profiles/res_kvar_355_pu.csv)

New Loadshape.res_kw_356_pu npts= 35040 interval=0.25 mult = (file=../../../profiles/res_kw_356_pu.csv)  qmult = (file=../../../profiles/res_kvar_356_pu.csv)

New Loadshape.res_kw_261_pu npts= 35040 interval=0.25 mult = (file=../../../profiles/res_kw_261_pu.csv)  qmult = (file=../../../profiles/res_kvar_261_pu.csv)

New Loadshape.res_kw_245_pu npts= 35040 interval=0.25 mult = (file=../../../profiles/res_kw_245_pu.csv)  qmult = (file=../../../profiles/res_kvar_245_pu.csv)

New Loadshape.res_kw_675_pu npts= 35040 interval=0.25 mult = (file=../../../profiles/res_kw_675_pu.csv)  qmult = (file=../../../profiles/res_kvar_675_pu.csv)

New Loadshape.res_kw_1220_pu npts= 35040 interval=0.25 mult = (file=../../../profiles/res_kw_1220_pu.csv)  qmult = (file=../../../profiles/res_kvar_1220_pu.csv)

New Loadshape.res_kw_853_pu npts= 35040 interval=0.25 mult = (file=../../../profiles/res_kw_853_pu.csv)  qmult = (file=../../../profiles/res_kvar_853_pu.csv)

New Loadshape.res_kw_62_pu npts= 35040 interval=0.25 mult = (file=../../../profiles/res_kw_62_pu.csv)  qmult = (file=../../../profiles/res_kvar_62_pu.csv)

New Loadshape.res_kw_384_pu npts= 35040 interval=0.25 mult = (file=../../../profiles/res_kw_384_pu.csv)  qmult = (file=../../../profiles/res_kvar_384_pu.csv)
