New Load.load_p1ulv147_1 conn=wye bus1=p1ulv147.1 kV=0.12 Vminpu=0.8 Vmaxpu=1.2 model=1 kW=7.04256695844029 kvar=1.659740351203588 Phases=1 yearly=res_kw_707_pu

New Load.load_p1ulv147_2 conn=wye bus1=p1ulv147.2 kV=0.12 Vminpu=0.8 Vmaxpu=1.2 model=1 kW=7.04256695844029 kvar=1.659740351203588 Phases=1 yearly=res_kw_707_pu

New Load.load_p1ulv148_1 conn=wye bus1=p1ulv148.1 kV=0.12 Vminpu=0.8 Vmaxpu=1.2 model=1 kW=3.6844020253442458 kvar=1.4451491397155931 Phases=1 yearly=res_kw_1258_pu

New Load.load_p1ulv148_2 conn=wye bus1=p1ulv148.2 kV=0.12 Vminpu=0.8 Vmaxpu=1.2 model=1 kW=3.6844020253442458 kvar=1.4451491397155931 Phases=1 yearly=res_kw_1258_pu

New Load.load_p1ulv154_1 conn=wye bus1=p1ulv154.1 kV=0.12 Vminpu=0.8 Vmaxpu=1.2 model=1 kW=1.3741353032147752 kvar=0.58237922359024 Phases=1 yearly=res_kw_1041_pu

New Load.load_p1ulv154_2 conn=wye bus1=p1ulv154.2 kV=0.12 Vminpu=0.8 Vmaxpu=1.2 model=1 kW=1.3741353032147752 kvar=0.58237922359024 Phases=1 yearly=res_kw_1041_pu

New Load.load_p1ulv157_1 conn=wye bus1=p1ulv157.1 kV=0.12 Vminpu=0.8 Vmaxpu=1.2 model=1 kW=3.3641909207712115 kvar=0.9284266244461494 Phases=1 yearly=res_kw_523_pu

New Load.load_p1ulv157_2 conn=wye bus1=p1ulv157.2 kV=0.12 Vminpu=0.8 Vmaxpu=1.2 model=1 kW=3.3641909207712115 kvar=0.9284266244461494 Phases=1 yearly=res_kw_523_pu

New Load.load_p1ulv158_1 conn=wye bus1=p1ulv158.1 kV=0.12 Vminpu=0.8 Vmaxpu=1.2 model=1 kW=3.9060227283575606 kvar=0.8578020352767629 Phases=1 yearly=res_kw_278_pu

New Load.load_p1ulv158_2 conn=wye bus1=p1ulv158.2 kV=0.12 Vminpu=0.8 Vmaxpu=1.2 model=1 kW=3.9060227283575606 kvar=0.8578020352767629 Phases=1 yearly=res_kw_278_pu

New Load.load_p1ulv159_1 conn=wye bus1=p1ulv159.1 kV=0.12 Vminpu=0.8 Vmaxpu=1.2 model=1 kW=3.6844020253442458 kvar=1.4451491397155931 Phases=1 yearly=res_kw_1258_pu

New Load.load_p1ulv159_2 conn=wye bus1=p1ulv159.2 kV=0.12 Vminpu=0.8 Vmaxpu=1.2 model=1 kW=3.6844020253442458 kvar=1.4451491397155931 Phases=1 yearly=res_kw_1258_pu

New Load.load_p1ulv160_1 conn=wye bus1=p1ulv160.1 kV=0.12 Vminpu=0.8 Vmaxpu=1.2 model=1 kW=8.04422437787292 kvar=1.3373848866311981 Phases=1 yearly=res_kw_695_pu

New Load.load_p1ulv160_2 conn=wye bus1=p1ulv160.2 kV=0.12 Vminpu=0.8 Vmaxpu=1.2 model=1 kW=8.04422437787292 kvar=1.3373848866311981 Phases=1 yearly=res_kw_695_pu

New Load.load_p1ulv161_1 conn=wye bus1=p1ulv161.1 kV=0.12 Vminpu=0.8 Vmaxpu=1.2 model=1 kW=4.788649591238137 kvar=1.023651375705972 Phases=1 yearly=res_kw_512_pu

New Load.load_p1ulv161_2 conn=wye bus1=p1ulv161.2 kV=0.12 Vminpu=0.8 Vmaxpu=1.2 model=1 kW=4.788649591238137 kvar=1.023651375705972 Phases=1 yearly=res_kw_512_pu

New Load.load_p1ulv162_1 conn=wye bus1=p1ulv162.1 kV=0.12 Vminpu=0.8 Vmaxpu=1.2 model=1 kW=4.4719654544990375 kvar=1.0992469987144322 Phases=1 yearly=res_kw_1157_pu

New Load.load_p1ulv162_2 conn=wye bus1=p1ulv162.2 kV=0.12 Vminpu=0.8 Vmaxpu=1.2 model=1 kW=4.4719654544990375 kvar=1.0992469987144322 Phases=1 yearly=res_kw_1157_pu

New Load.load_p1ulv163_1 conn=wye bus1=p1ulv163.1 kV=0.12 Vminpu=0.8 Vmaxpu=1.2 model=1 kW=4.788649591238137 kvar=1.023651375705972 Phases=1 yearly=res_kw_512_pu

New Load.load_p1ulv163_2 conn=wye bus1=p1ulv163.2 kV=0.12 Vminpu=0.8 Vmaxpu=1.2 model=1 kW=4.788649591238137 kvar=1.023651375705972 Phases=1 yearly=res_kw_512_pu

New Load.load_p1ulv164_1 conn=wye bus1=p1ulv164.1 kV=0.12 Vminpu=0.8 Vmaxpu=1.2 model=1 kW=5.9414229713995805 kvar=1.343207581329588 Phases=1 yearly=res_kw_595_pu

New Load.load_p1ulv164_2 conn=wye bus1=p1ulv164.2 kV=0.12 Vminpu=0.8 Vmaxpu=1.2 model=1 kW=5.9414229713995805 kvar=1.343207581329588 Phases=1 yearly=res_kw_595_pu

New Load.load_p1ulv165_1 conn=wye bus1=p1ulv165.1 kV=0.12 Vminpu=0.8 Vmaxpu=1.2 model=1 kW=2.8808589162778904 kvar=0.2835073949750637 Phases=1 yearly=res_kw_1036_pu

New Load.load_p1ulv165_2 conn=wye bus1=p1ulv165.2 kV=0.12 Vminpu=0.8 Vmaxpu=1.2 model=1 kW=2.8808589162778904 kvar=0.2835073949750637 Phases=1 yearly=res_kw_1036_pu

New Load.load_p1ulv166_1 conn=wye bus1=p1ulv166.1 kV=0.12 Vminpu=0.8 Vmaxpu=1.2 model=1 kW=4.78815623948431 kvar=1.2110296754961107 Phases=1 yearly=res_kw_842_pu

New Load.load_p1ulv166_2 conn=wye bus1=p1ulv166.2 kV=0.12 Vminpu=0.8 Vmaxpu=1.2 model=1 kW=4.78815623948431 kvar=1.2110296754961107 Phases=1 yearly=res_kw_842_pu

New Load.load_p1ulv167 conn=wye bus1=p1ulv167.1.2.3 kV=0.48 Vminpu=0.8 Vmaxpu=1.2 model=1 kW=61.67019452009947 kvar=7.714241992502668 Phases=3 yearly=res_kw_1181_pu

New Load.load_p1ulv168_1 conn=wye bus1=p1ulv168.1 kV=0.12 Vminpu=0.8 Vmaxpu=1.2 model=1 kW=4.788649591238137 kvar=1.023651375705972 Phases=1 yearly=res_kw_512_pu

New Load.load_p1ulv168_2 conn=wye bus1=p1ulv168.2 kV=0.12 Vminpu=0.8 Vmaxpu=1.2 model=1 kW=4.788649591238137 kvar=1.023651375705972 Phases=1 yearly=res_kw_512_pu

New Load.load_p1ulv169_1 conn=wye bus1=p1ulv169.1 kV=0.12 Vminpu=0.8 Vmaxpu=1.2 model=1 kW=9.358521499301396 kvar=0.9436008203397507 Phases=1 yearly=com_kw_12824_pu

New Load.load_p1ulv169_2 conn=wye bus1=p1ulv169.2 kV=0.12 Vminpu=0.8 Vmaxpu=1.2 model=1 kW=9.358521499301396 kvar=0.9436008203397507 Phases=1 yearly=com_kw_12824_pu

New Load.load_p1ulv170 conn=wye bus1=p1ulv170.1.2.3 kV=0.48 Vminpu=0.8 Vmaxpu=1.2 model=1 kW=43.73505631398508 kvar=5.0290236670440045 Phases=3 yearly=res_kw_598_pu

New Load.load_p1ulv171_1 conn=wye bus1=p1ulv171.1 kV=0.12 Vminpu=0.8 Vmaxpu=1.2 model=1 kW=5.121080771859233 kvar=1.1807848049623457 Phases=1 yearly=res_kw_691_pu

New Load.load_p1ulv171_2 conn=wye bus1=p1ulv171.2 kV=0.12 Vminpu=0.8 Vmaxpu=1.2 model=1 kW=5.121080771859233 kvar=1.1807848049623457 Phases=1 yearly=res_kw_691_pu

New Load.load_p1ulv172_1 conn=wye bus1=p1ulv172.1 kV=0.12 Vminpu=0.8 Vmaxpu=1.2 model=1 kW=1.807126033260992 kvar=0.72467203239937 Phases=1 yearly=res_kw_625_pu

New Load.load_p1ulv172_2 conn=wye bus1=p1ulv172.2 kV=0.12 Vminpu=0.8 Vmaxpu=1.2 model=1 kW=1.807126033260992 kvar=0.72467203239937 Phases=1 yearly=res_kw_625_pu

New Load.load_p1ulv173_1 conn=wye bus1=p1ulv173.1 kV=0.12 Vminpu=0.8 Vmaxpu=1.2 model=1 kW=3.4468581914223817 kvar=1.1411197390818253 Phases=1 yearly=res_kw_250_pu

New Load.load_p1ulv173_2 conn=wye bus1=p1ulv173.2 kV=0.12 Vminpu=0.8 Vmaxpu=1.2 model=1 kW=3.4468581914223817 kvar=1.1411197390818253 Phases=1 yearly=res_kw_250_pu

New Load.load_p1ulv174_1 conn=wye bus1=p1ulv174.1 kV=0.12 Vminpu=0.8 Vmaxpu=1.2 model=1 kW=6.2419949477893475 kvar=3.2518916743102033 Phases=1 yearly=res_kw_748_pu

New Load.load_p1ulv174_2 conn=wye bus1=p1ulv174.2 kV=0.12 Vminpu=0.8 Vmaxpu=1.2 model=1 kW=6.2419949477893475 kvar=3.2518916743102033 Phases=1 yearly=res_kw_748_pu

New Load.load_p1ulv175_1 conn=wye bus1=p1ulv175.1 kV=0.12 Vminpu=0.8 Vmaxpu=1.2 model=1 kW=6.121843752393233 kvar=1.8222876779408097 Phases=1 yearly=res_kw_1153_pu

New Load.load_p1ulv175_2 conn=wye bus1=p1ulv175.2 kV=0.12 Vminpu=0.8 Vmaxpu=1.2 model=1 kW=6.121843752393233 kvar=1.8222876779408097 Phases=1 yearly=res_kw_1153_pu

New Load.load_p1ulv176_1 conn=wye bus1=p1ulv176.1 kV=0.12 Vminpu=0.8 Vmaxpu=1.2 model=1 kW=4.897278139879629 kvar=1.0793580648076895 Phases=1 yearly=res_kw_645_pu

New Load.load_p1ulv176_2 conn=wye bus1=p1ulv176.2 kV=0.12 Vminpu=0.8 Vmaxpu=1.2 model=1 kW=4.897278139879629 kvar=1.0793580648076895 Phases=1 yearly=res_kw_645_pu

New Load.load_p1ulv177_1 conn=wye bus1=p1ulv177.1 kV=0.12 Vminpu=0.8 Vmaxpu=1.2 model=1 kW=4.47171304939181 kvar=1.1676103385976955 Phases=1 yearly=res_kw_627_pu

New Load.load_p1ulv177_2 conn=wye bus1=p1ulv177.2 kV=0.12 Vminpu=0.8 Vmaxpu=1.2 model=1 kW=4.47171304939181 kvar=1.1676103385976955 Phases=1 yearly=res_kw_627_pu

New Load.load_p1ulv178_1 conn=wye bus1=p1ulv178.1 kV=0.12 Vminpu=0.8 Vmaxpu=1.2 model=1 kW=3.963001053413761 kvar=0.9410786890170905 Phases=1 yearly=res_kw_1256_pu

New Load.load_p1ulv178_2 conn=wye bus1=p1ulv178.2 kV=0.12 Vminpu=0.8 Vmaxpu=1.2 model=1 kW=3.963001053413761 kvar=0.9410786890170905 Phases=1 yearly=res_kw_1256_pu

New Load.load_p1ulv179_1 conn=wye bus1=p1ulv179.1 kV=0.12 Vminpu=0.8 Vmaxpu=1.2 model=1 kW=9.341738473663403 kvar=2.018548151169967 Phases=1 yearly=res_kw_504_pu

New Load.load_p1ulv179_2 conn=wye bus1=p1ulv179.2 kV=0.12 Vminpu=0.8 Vmaxpu=1.2 model=1 kW=9.341738473663403 kvar=2.018548151169967 Phases=1 yearly=res_kw_504_pu

New Load.load_p1ulv180_1 conn=wye bus1=p1ulv180.1 kV=0.12 Vminpu=0.8 Vmaxpu=1.2 model=1 kW=9.341738473663403 kvar=2.018548151169967 Phases=1 yearly=res_kw_504_pu

New Load.load_p1ulv180_2 conn=wye bus1=p1ulv180.2 kV=0.12 Vminpu=0.8 Vmaxpu=1.2 model=1 kW=9.341738473663403 kvar=2.018548151169967 Phases=1 yearly=res_kw_504_pu

New Load.load_p1ulv181 conn=wye bus1=p1ulv181.1.2.3 kV=0.48 Vminpu=0.8 Vmaxpu=1.2 model=1 kW=31.56390894948716 kvar=5.59016195527881 Phases=3 yearly=res_kw_76_pu

New Load.load_p1ulv182 conn=wye bus1=p1ulv182.1.2.3 kV=0.48 Vminpu=0.8 Vmaxpu=1.2 model=1 kW=359.6894358959385 kvar=105.981216307442 Phases=3 yearly=com_kw_12814_pu

New Load.load_p1ulv183 conn=wye bus1=p1ulv183.1.2.3 kV=0.48 Vminpu=0.8 Vmaxpu=1.2 model=1 kW=43.73505631398508 kvar=5.0290236670440045 Phases=3 yearly=res_kw_598_pu

New Load.load_p1ulv184_1 conn=wye bus1=p1ulv184.1 kV=0.12 Vminpu=0.8 Vmaxpu=1.2 model=1 kW=12.235323130683785 kvar=3.343555329740589 Phases=1 yearly=res_kw_1104_pu

New Load.load_p1ulv184_2 conn=wye bus1=p1ulv184.2 kV=0.12 Vminpu=0.8 Vmaxpu=1.2 model=1 kW=12.235323130683785 kvar=3.343555329740589 Phases=1 yearly=res_kw_1104_pu

New Load.load_p1ulv185_1 conn=wye bus1=p1ulv185.1 kV=0.12 Vminpu=0.8 Vmaxpu=1.2 model=1 kW=4.889402611994926 kvar=1.0559288347164948 Phases=1 yearly=res_kw_1160_pu

New Load.load_p1ulv185_2 conn=wye bus1=p1ulv185.2 kV=0.12 Vminpu=0.8 Vmaxpu=1.2 model=1 kW=4.889402611994926 kvar=1.0559288347164948 Phases=1 yearly=res_kw_1160_pu

New Load.load_p1ulv186_1 conn=wye bus1=p1ulv186.1 kV=0.12 Vminpu=0.8 Vmaxpu=1.2 model=1 kW=8.01962100453296 kvar=1.9011506674959975 Phases=1 yearly=res_kw_380_pu

New Load.load_p1ulv186_2 conn=wye bus1=p1ulv186.2 kV=0.12 Vminpu=0.8 Vmaxpu=1.2 model=1 kW=8.01962100453296 kvar=1.9011506674959975 Phases=1 yearly=res_kw_380_pu

New Load.load_p1ulv187 conn=wye bus1=p1ulv187.1.2.3 kV=0.48 Vminpu=0.8 Vmaxpu=1.2 model=1 kW=30.473135994512248 kvar=2.2382994953882185 Phases=3 yearly=res_kw_1155_pu

New Load.load_p1ulv188 conn=wye bus1=p1ulv188.1.2.3 kV=0.48 Vminpu=0.8 Vmaxpu=1.2 model=1 kW=225.3119536155344 kvar=9.26784200591283 Phases=3 yearly=com_kw_13577_pu

New Load.load_p1ulv1511_1 conn=wye bus1=p1ulv1511.1 kV=0.12 Vminpu=0.8 Vmaxpu=1.2 model=1 kW=4.7808294278431465 kvar=0.6499483324233782 Phases=1 yearly=res_kw_416_pu

New Load.load_p1ulv1511_2 conn=wye bus1=p1ulv1511.2 kV=0.12 Vminpu=0.8 Vmaxpu=1.2 model=1 kW=4.7808294278431465 kvar=0.6499483324233782 Phases=1 yearly=res_kw_416_pu

New Load.load_p1ulv1512_1 conn=wye bus1=p1ulv1512.1 kV=0.12 Vminpu=0.8 Vmaxpu=1.2 model=1 kW=5.574466357705123 kvar=1.0791692562247137 Phases=1 yearly=res_kw_1083_pu

New Load.load_p1ulv1512_2 conn=wye bus1=p1ulv1512.2 kV=0.12 Vminpu=0.8 Vmaxpu=1.2 model=1 kW=5.574466357705123 kvar=1.0791692562247137 Phases=1 yearly=res_kw_1083_pu

New Load.load_p1ulv1513_1 conn=wye bus1=p1ulv1513.1 kV=0.12 Vminpu=0.8 Vmaxpu=1.2 model=1 kW=4.788649591238137 kvar=1.023651375705972 Phases=1 yearly=res_kw_512_pu

New Load.load_p1ulv1513_2 conn=wye bus1=p1ulv1513.2 kV=0.12 Vminpu=0.8 Vmaxpu=1.2 model=1 kW=4.788649591238137 kvar=1.023651375705972 Phases=1 yearly=res_kw_512_pu

New Load.load_p1ulv1514_1 conn=wye bus1=p1ulv1514.1 kV=0.12 Vminpu=0.8 Vmaxpu=1.2 model=1 kW=5.772584848285176 kvar=1.3225757839012733 Phases=1 yearly=res_kw_599_pu

New Load.load_p1ulv1514_2 conn=wye bus1=p1ulv1514.2 kV=0.12 Vminpu=0.8 Vmaxpu=1.2 model=1 kW=5.772584848285176 kvar=1.3225757839012733 Phases=1 yearly=res_kw_599_pu

New Load.load_p1ulv1515_1 conn=wye bus1=p1ulv1515.1 kV=0.12 Vminpu=0.8 Vmaxpu=1.2 model=1 kW=9.188058575942842 kvar=1.4142394215506044 Phases=1 yearly=res_kw_1226_pu

New Load.load_p1ulv1515_2 conn=wye bus1=p1ulv1515.2 kV=0.12 Vminpu=0.8 Vmaxpu=1.2 model=1 kW=9.188058575942842 kvar=1.4142394215506044 Phases=1 yearly=res_kw_1226_pu

New Load.load_p1ulv1516_1 conn=wye bus1=p1ulv1516.1 kV=0.12 Vminpu=0.8 Vmaxpu=1.2 model=1 kW=4.505900280832392 kvar=0.6729743583292512 Phases=1 yearly=res_kw_453_pu

New Load.load_p1ulv1516_2 conn=wye bus1=p1ulv1516.2 kV=0.12 Vminpu=0.8 Vmaxpu=1.2 model=1 kW=4.505900280832392 kvar=0.6729743583292512 Phases=1 yearly=res_kw_453_pu

New Load.load_p1ulv1517_1 conn=wye bus1=p1ulv1517.1 kV=0.12 Vminpu=0.8 Vmaxpu=1.2 model=1 kW=5.613655149523946 kvar=1.2146178612909586 Phases=1 yearly=com_kw_12903_pu

New Load.load_p1ulv1517_2 conn=wye bus1=p1ulv1517.2 kV=0.12 Vminpu=0.8 Vmaxpu=1.2 model=1 kW=5.613655149523946 kvar=1.2146178612909586 Phases=1 yearly=com_kw_12903_pu

New Load.load_p1ulv1518_1 conn=wye bus1=p1ulv1518.1 kV=0.12 Vminpu=0.8 Vmaxpu=1.2 model=1 kW=2.27937269045903 kvar=0.6423134931189778 Phases=1 yearly=com_kw_15224_pu

New Load.load_p1ulv1518_2 conn=wye bus1=p1ulv1518.2 kV=0.12 Vminpu=0.8 Vmaxpu=1.2 model=1 kW=2.27937269045903 kvar=0.6423134931189778 Phases=1 yearly=com_kw_15224_pu

New Load.load_p1ulv1519_1 conn=wye bus1=p1ulv1519.1 kV=0.12 Vminpu=0.8 Vmaxpu=1.2 model=1 kW=2.465496051676302 kvar=0.5881407747231531 Phases=1 yearly=com_kw_13121_pu

New Load.load_p1ulv1519_2 conn=wye bus1=p1ulv1519.2 kV=0.12 Vminpu=0.8 Vmaxpu=1.2 model=1 kW=2.465496051676302 kvar=0.5881407747231531 Phases=1 yearly=com_kw_13121_pu

New Load.load_p1ulv1520 conn=wye bus1=p1ulv1520.1.2.3 kV=0.48 Vminpu=0.8 Vmaxpu=1.2 model=1 kW=19.034983396106526 kvar=2.891380693812425 Phases=3 yearly=res_kw_1231_pu

New Load.load_p1ulv1521_1 conn=wye bus1=p1ulv1521.1 kV=0.12 Vminpu=0.8 Vmaxpu=1.2 model=1 kW=5.777968789114468 kvar=0.5425823089827511 Phases=1 yearly=com_kw_15253_pu

New Load.load_p1ulv1521_2 conn=wye bus1=p1ulv1521.2 kV=0.12 Vminpu=0.8 Vmaxpu=1.2 model=1 kW=5.777968789114468 kvar=0.5425823089827511 Phases=1 yearly=com_kw_15253_pu

New Load.load_p1ulv1522_1 conn=wye bus1=p1ulv1522.1 kV=0.12 Vminpu=0.8 Vmaxpu=1.2 model=1 kW=4.7264639008757365 kvar=1.36553634213978 Phases=1 yearly=res_kw_1220_pu

New Load.load_p1ulv1522_2 conn=wye bus1=p1ulv1522.2 kV=0.12 Vminpu=0.8 Vmaxpu=1.2 model=1 kW=4.7264639008757365 kvar=1.36553634213978 Phases=1 yearly=res_kw_1220_pu

New Load.load_p1ulv1523 conn=wye bus1=p1ulv1523.1.2.3 kV=0.48 Vminpu=0.8 Vmaxpu=1.2 model=1 kW=242.62836081703526 kvar=6.393745122297993 Phases=3 yearly=com_kw_13134_pu

New Load.load_p1ulv1524_1 conn=wye bus1=p1ulv1524.1 kV=0.12 Vminpu=0.8 Vmaxpu=1.2 model=1 kW=33.474430232152706 kvar=3.778119727772629 Phases=1 yearly=res_kw_653_pu

New Load.load_p1ulv1524_2 conn=wye bus1=p1ulv1524.2 kV=0.12 Vminpu=0.8 Vmaxpu=1.2 model=1 kW=33.474430232152706 kvar=3.778119727772629 Phases=1 yearly=res_kw_653_pu

New Load.load_p1ulv1525_1 conn=wye bus1=p1ulv1525.1 kV=0.12 Vminpu=0.8 Vmaxpu=1.2 model=1 kW=4.78815623948431 kvar=1.2110296754961107 Phases=1 yearly=res_kw_842_pu

New Load.load_p1ulv1525_2 conn=wye bus1=p1ulv1525.2 kV=0.12 Vminpu=0.8 Vmaxpu=1.2 model=1 kW=4.78815623948431 kvar=1.2110296754961107 Phases=1 yearly=res_kw_842_pu

New Load.load_p1ulv1526_1 conn=wye bus1=p1ulv1526.1 kV=0.12 Vminpu=0.8 Vmaxpu=1.2 model=1 kW=6.847378896370207 kvar=0.2857422414791666 Phases=1 yearly=com_kw_14382_pu

New Load.load_p1ulv1526_2 conn=wye bus1=p1ulv1526.2 kV=0.12 Vminpu=0.8 Vmaxpu=1.2 model=1 kW=6.847378896370207 kvar=0.2857422414791666 Phases=1 yearly=com_kw_14382_pu

New Load.load_p1ulv1527_1 conn=wye bus1=p1ulv1527.1 kV=0.12 Vminpu=0.8 Vmaxpu=1.2 model=1 kW=7.312410233538024 kvar=1.397592686744361 Phases=1 yearly=res_kw_1239_pu

New Load.load_p1ulv1527_2 conn=wye bus1=p1ulv1527.2 kV=0.12 Vminpu=0.8 Vmaxpu=1.2 model=1 kW=7.312410233538024 kvar=1.397592686744361 Phases=1 yearly=res_kw_1239_pu

New Load.load_p1ulv1528 conn=wye bus1=p1ulv1528.1.2.3 kV=0.48 Vminpu=0.8 Vmaxpu=1.2 model=1 kW=133.35453642646274 kvar=8.766656193851338 Phases=3 yearly=com_kw_13153_pu

New Load.load_p1ulv1529 conn=wye bus1=p1ulv1529.1.2.3 kV=0.48 Vminpu=0.8 Vmaxpu=1.2 model=1 kW=44.63242253317529 kvar=10.097066849540786 Phases=3 yearly=com_kw_14665_pu

New Load.load_p1ulv1530_1 conn=wye bus1=p1ulv1530.1 kV=0.12 Vminpu=0.8 Vmaxpu=1.2 model=1 kW=3.4468581914223817 kvar=1.1411197390818253 Phases=1 yearly=res_kw_250_pu

New Load.load_p1ulv1530_2 conn=wye bus1=p1ulv1530.2 kV=0.12 Vminpu=0.8 Vmaxpu=1.2 model=1 kW=3.4468581914223817 kvar=1.1411197390818253 Phases=1 yearly=res_kw_250_pu

New Load.load_p1ulv1531 conn=wye bus1=p1ulv1531.1.2.3 kV=0.48 Vminpu=0.8 Vmaxpu=1.2 model=1 kW=27.31413429007533 kvar=2.0116721357119838 Phases=3 yearly=res_kw_123_pu

New Load.load_p1ulv1532_1 conn=wye bus1=p1ulv1532.1 kV=0.12 Vminpu=0.8 Vmaxpu=1.2 model=1 kW=7.036810175504098 kvar=0.6472607436556739 Phases=1 yearly=res_kw_552_pu

New Load.load_p1ulv1532_2 conn=wye bus1=p1ulv1532.2 kV=0.12 Vminpu=0.8 Vmaxpu=1.2 model=1 kW=7.036810175504098 kvar=0.6472607436556739 Phases=1 yearly=res_kw_552_pu

New Load.load_p1ulv1533_1 conn=wye bus1=p1ulv1533.1 kV=0.12 Vminpu=0.8 Vmaxpu=1.2 model=1 kW=4.666080754031652 kvar=0.9704814918535188 Phases=1 yearly=res_kw_280_pu

New Load.load_p1ulv1533_2 conn=wye bus1=p1ulv1533.2 kV=0.12 Vminpu=0.8 Vmaxpu=1.2 model=1 kW=4.666080754031652 kvar=0.9704814918535188 Phases=1 yearly=res_kw_280_pu

New Load.load_p1ulv1534 conn=wye bus1=p1ulv1534.1.2.3 kV=0.48 Vminpu=0.8 Vmaxpu=1.2 model=1 kW=27.31413429007533 kvar=2.0116721357119838 Phases=3 yearly=res_kw_123_pu

New Load.load_p1ulv1535_1 conn=wye bus1=p1ulv1535.1 kV=0.12 Vminpu=0.8 Vmaxpu=1.2 model=1 kW=6.495867403886884 kvar=1.0074089308244782 Phases=1 yearly=res_kw_597_pu

New Load.load_p1ulv1535_2 conn=wye bus1=p1ulv1535.2 kV=0.12 Vminpu=0.8 Vmaxpu=1.2 model=1 kW=6.495867403886884 kvar=1.0074089308244782 Phases=1 yearly=res_kw_597_pu

New Load.load_p1ulv1536_1 conn=wye bus1=p1ulv1536.1 kV=0.12 Vminpu=0.8 Vmaxpu=1.2 model=1 kW=3.3641909207712115 kvar=0.9284266244461494 Phases=1 yearly=res_kw_523_pu

New Load.load_p1ulv1536_2 conn=wye bus1=p1ulv1536.2 kV=0.12 Vminpu=0.8 Vmaxpu=1.2 model=1 kW=3.3641909207712115 kvar=0.9284266244461494 Phases=1 yearly=res_kw_523_pu

New Load.load_p1ulv1537_1 conn=wye bus1=p1ulv1533.1 kV=0.12 Vminpu=0.8 Vmaxpu=1.2 model=1 kW=3.789884331965197 kvar=1.0036576715582408 Phases=1 yearly=res_kw_670_pu

New Load.load_p1ulv1537_2 conn=wye bus1=p1ulv1533.2 kV=0.12 Vminpu=0.8 Vmaxpu=1.2 model=1 kW=3.789884331965197 kvar=1.0036576715582408 Phases=1 yearly=res_kw_670_pu

New Load.load_p1ulv1538 conn=wye bus1=p1ulv1538.1.2.3 kV=0.48 Vminpu=0.8 Vmaxpu=1.2 model=1 kW=37.25108334424002 kvar=4.1309232117527666 Phases=3 yearly=res_kw_1040_pu

New Load.load_p1ulv1539_1 conn=wye bus1=p1ulv1539.1 kV=0.12 Vminpu=0.8 Vmaxpu=1.2 model=1 kW=8.01962100453296 kvar=1.9011506674959975 Phases=1 yearly=res_kw_380_pu

New Load.load_p1ulv1539_2 conn=wye bus1=p1ulv1539.2 kV=0.12 Vminpu=0.8 Vmaxpu=1.2 model=1 kW=8.01962100453296 kvar=1.9011506674959975 Phases=1 yearly=res_kw_380_pu

New Load.load_p1ulv1540_1 conn=wye bus1=p1ulv1540.1 kV=0.12 Vminpu=0.8 Vmaxpu=1.2 model=1 kW=3.460037762068802 kvar=0.6117019426679855 Phases=1 yearly=res_kw_205_pu

New Load.load_p1ulv1540_2 conn=wye bus1=p1ulv1540.2 kV=0.12 Vminpu=0.8 Vmaxpu=1.2 model=1 kW=3.460037762068802 kvar=0.6117019426679855 Phases=1 yearly=res_kw_205_pu

New Load.load_p1ulv1618_1 conn=wye bus1=p1ulv1618.1 kV=0.12 Vminpu=0.8 Vmaxpu=1.2 model=1 kW=6.224817813202313 kvar=1.7553010009693135 Phases=1 yearly=res_kw_710_pu

New Load.load_p1ulv1618_2 conn=wye bus1=p1ulv1618.2 kV=0.12 Vminpu=0.8 Vmaxpu=1.2 model=1 kW=6.224817813202313 kvar=1.7553010009693135 Phases=1 yearly=res_kw_710_pu

New Load.load_p1ulv1624_1 conn=wye bus1=p1ulv1624.1 kV=0.12 Vminpu=0.8 Vmaxpu=1.2 model=1 kW=4.636481007063952 kvar=0.9283071535807212 Phases=1 yearly=res_kw_644_pu

New Load.load_p1ulv1624_2 conn=wye bus1=p1ulv1624.2 kV=0.12 Vminpu=0.8 Vmaxpu=1.2 model=1 kW=4.636481007063952 kvar=0.9283071535807212 Phases=1 yearly=res_kw_644_pu

New Load.load_p1ulv1628_1 conn=wye bus1=p1ulv1628.1 kV=0.12 Vminpu=0.8 Vmaxpu=1.2 model=1 kW=7.820072877358693 kvar=1.759853089528969 Phases=1 yearly=res_kw_97_pu

New Load.load_p1ulv1628_2 conn=wye bus1=p1ulv1628.2 kV=0.12 Vminpu=0.8 Vmaxpu=1.2 model=1 kW=7.820072877358693 kvar=1.759853089528969 Phases=1 yearly=res_kw_97_pu

New Load.load_p1ulv1633_1 conn=wye bus1=p1ulv1633.1 kV=0.12 Vminpu=0.8 Vmaxpu=1.2 model=1 kW=2.6241521841182514 kvar=0.8429304779950015 Phases=1 yearly=res_kw_33_pu

New Load.load_p1ulv1633_2 conn=wye bus1=p1ulv1633.2 kV=0.12 Vminpu=0.8 Vmaxpu=1.2 model=1 kW=2.6241521841182514 kvar=0.8429304779950015 Phases=1 yearly=res_kw_33_pu

New Load.load_p1ulv8261_1 conn=wye bus1=p1ulv8261.1 kV=0.12 Vminpu=0.8 Vmaxpu=1.2 model=1 kW=4.658663502989286 kvar=1.3388389434895354 Phases=1 yearly=res_kw_182_pu

New Load.load_p1ulv8261_2 conn=wye bus1=p1ulv8261.2 kV=0.12 Vminpu=0.8 Vmaxpu=1.2 model=1 kW=4.658663502989286 kvar=1.3388389434895354 Phases=1 yearly=res_kw_182_pu

New Load.load_p1ulv8267_1 conn=wye bus1=p1ulv8267.1 kV=0.12 Vminpu=0.8 Vmaxpu=1.2 model=1 kW=2.6241521841182514 kvar=0.8429304779950015 Phases=1 yearly=res_kw_33_pu

New Load.load_p1ulv8267_2 conn=wye bus1=p1ulv8267.2 kV=0.12 Vminpu=0.8 Vmaxpu=1.2 model=1 kW=2.6241521841182514 kvar=0.8429304779950015 Phases=1 yearly=res_kw_33_pu

New Load.load_p1ulv8270_1 conn=wye bus1=p1ulv8270.1 kV=0.12 Vminpu=0.8 Vmaxpu=1.2 model=1 kW=6.762043824620867 kvar=1.5998983167986478 Phases=1 yearly=res_kw_579_pu

New Load.load_p1ulv8270_2 conn=wye bus1=p1ulv8270.2 kV=0.12 Vminpu=0.8 Vmaxpu=1.2 model=1 kW=6.762043824620867 kvar=1.5998983167986478 Phases=1 yearly=res_kw_579_pu

New Load.load_p1ulv8271_1 conn=wye bus1=p1ulv8271.1 kV=0.12 Vminpu=0.8 Vmaxpu=1.2 model=1 kW=3.8748715750127736 kvar=1.5614372175332516 Phases=1 yearly=res_kw_517_pu

New Load.load_p1ulv8271_2 conn=wye bus1=p1ulv8271.2 kV=0.12 Vminpu=0.8 Vmaxpu=1.2 model=1 kW=3.8748715750127736 kvar=1.5614372175332516 Phases=1 yearly=res_kw_517_pu

New Load.load_p1ulv8274_1 conn=wye bus1=p1ulv8274.1 kV=0.12 Vminpu=0.8 Vmaxpu=1.2 model=1 kW=2.605021030189827 kvar=1.0007509371876184 Phases=1 yearly=res_kw_24_pu

New Load.load_p1ulv8274_2 conn=wye bus1=p1ulv8274.2 kV=0.12 Vminpu=0.8 Vmaxpu=1.2 model=1 kW=2.605021030189827 kvar=1.0007509371876184 Phases=1 yearly=res_kw_24_pu

New Load.load_p1ulv8282_1 conn=wye bus1=p1ulv8282.1 kV=0.12 Vminpu=0.8 Vmaxpu=1.2 model=1 kW=4.788649591238137 kvar=1.023651375705972 Phases=1 yearly=res_kw_512_pu

New Load.load_p1ulv8282_2 conn=wye bus1=p1ulv8282.2 kV=0.12 Vminpu=0.8 Vmaxpu=1.2 model=1 kW=4.788649591238137 kvar=1.023651375705972 Phases=1 yearly=res_kw_512_pu

New Load.load_p1ulv8285_1 conn=wye bus1=p1ulv8285.1 kV=0.12 Vminpu=0.8 Vmaxpu=1.2 model=1 kW=2.658027342573646 kvar=0.9113625924854422 Phases=1 yearly=res_kw_1105_pu

New Load.load_p1ulv8285_2 conn=wye bus1=p1ulv8285.2 kV=0.12 Vminpu=0.8 Vmaxpu=1.2 model=1 kW=2.658027342573646 kvar=0.9113625924854422 Phases=1 yearly=res_kw_1105_pu

New Load.load_p1ulv8290_1 conn=wye bus1=p1ulv8290.1 kV=0.12 Vminpu=0.8 Vmaxpu=1.2 model=1 kW=2.6241521841182514 kvar=0.8429304779950015 Phases=1 yearly=res_kw_33_pu

New Load.load_p1ulv8290_2 conn=wye bus1=p1ulv8290.2 kV=0.12 Vminpu=0.8 Vmaxpu=1.2 model=1 kW=2.6241521841182514 kvar=0.8429304779950015 Phases=1 yearly=res_kw_33_pu

New Load.load_p1ulv8292_1 conn=wye bus1=p1ulv8292.1 kV=0.12 Vminpu=0.8 Vmaxpu=1.2 model=1 kW=2.1578213071803583 kvar=0.8327090061289109 Phases=1 yearly=res_kw_696_pu

New Load.load_p1ulv8292_2 conn=wye bus1=p1ulv8292.2 kV=0.12 Vminpu=0.8 Vmaxpu=1.2 model=1 kW=2.1578213071803583 kvar=0.8327090061289109 Phases=1 yearly=res_kw_696_pu

New Load.load_p1ulv8335_1 conn=wye bus1=p1ulv8335.1 kV=0.12 Vminpu=0.8 Vmaxpu=1.2 model=1 kW=5.02113589877799 kvar=1.330838974667839 Phases=1 yearly=res_kw_207_pu

New Load.load_p1ulv8335_2 conn=wye bus1=p1ulv8335.2 kV=0.12 Vminpu=0.8 Vmaxpu=1.2 model=1 kW=5.02113589877799 kvar=1.330838974667839 Phases=1 yearly=res_kw_207_pu

New Load.load_p1ulv8337_1 conn=wye bus1=p1ulv8337.1 kV=0.12 Vminpu=0.8 Vmaxpu=1.2 model=1 kW=2.6241521841182514 kvar=0.8429304779950015 Phases=1 yearly=res_kw_33_pu

New Load.load_p1ulv8337_2 conn=wye bus1=p1ulv8337.2 kV=0.12 Vminpu=0.8 Vmaxpu=1.2 model=1 kW=2.6241521841182514 kvar=0.8429304779950015 Phases=1 yearly=res_kw_33_pu

New Load.load_p1ulv8340_1 conn=wye bus1=p1ulv8340.1 kV=0.12 Vminpu=0.8 Vmaxpu=1.2 model=1 kW=4.788649591238137 kvar=1.023651375705972 Phases=1 yearly=res_kw_512_pu

New Load.load_p1ulv8340_2 conn=wye bus1=p1ulv8340.2 kV=0.12 Vminpu=0.8 Vmaxpu=1.2 model=1 kW=4.788649591238137 kvar=1.023651375705972 Phases=1 yearly=res_kw_512_pu

New Load.load_p1ulv8343_1 conn=wye bus1=p1ulv8343.1 kV=0.12 Vminpu=0.8 Vmaxpu=1.2 model=1 kW=7.04256695844029 kvar=1.659740351203588 Phases=1 yearly=res_kw_707_pu

New Load.load_p1ulv8343_2 conn=wye bus1=p1ulv8343.2 kV=0.12 Vminpu=0.8 Vmaxpu=1.2 model=1 kW=7.04256695844029 kvar=1.659740351203588 Phases=1 yearly=res_kw_707_pu

New Load.load_p1ulv8346_1 conn=wye bus1=p1ulv8346.1 kV=0.12 Vminpu=0.8 Vmaxpu=1.2 model=1 kW=2.623267981089487 kvar=1.212519304398851 Phases=1 yearly=res_kw_452_pu

New Load.load_p1ulv8346_2 conn=wye bus1=p1ulv8346.2 kV=0.12 Vminpu=0.8 Vmaxpu=1.2 model=1 kW=2.623267981089487 kvar=1.212519304398851 Phases=1 yearly=res_kw_452_pu

New Load.load_p1ulv8357_1 conn=wye bus1=p1ulv8357.1 kV=0.12 Vminpu=0.8 Vmaxpu=1.2 model=1 kW=2.1894046505184286 kvar=0.7281040757251952 Phases=1 yearly=res_kw_1042_pu

New Load.load_p1ulv8357_2 conn=wye bus1=p1ulv8357.2 kV=0.12 Vminpu=0.8 Vmaxpu=1.2 model=1 kW=2.1894046505184286 kvar=0.7281040757251952 Phases=1 yearly=res_kw_1042_pu

New Load.load_p1ulv8361_1 conn=wye bus1=p1ulv8361.1 kV=0.12 Vminpu=0.8 Vmaxpu=1.2 model=1 kW=2.1376631749204993 kvar=0.6218033466021168 Phases=1 yearly=res_kw_93_pu

New Load.load_p1ulv8361_2 conn=wye bus1=p1ulv8361.2 kV=0.12 Vminpu=0.8 Vmaxpu=1.2 model=1 kW=2.1376631749204993 kvar=0.6218033466021168 Phases=1 yearly=res_kw_93_pu

New Load.load_p1ulv8365_1 conn=wye bus1=p1ulv8365.1 kV=0.12 Vminpu=0.8 Vmaxpu=1.2 model=1 kW=2.605021030189827 kvar=1.0007509371876184 Phases=1 yearly=res_kw_24_pu

New Load.load_p1ulv8365_2 conn=wye bus1=p1ulv8365.2 kV=0.12 Vminpu=0.8 Vmaxpu=1.2 model=1 kW=2.605021030189827 kvar=1.0007509371876184 Phases=1 yearly=res_kw_24_pu

New Load.load_p1ulv8376_1 conn=wye bus1=p1ulv8376.1 kV=0.12 Vminpu=0.8 Vmaxpu=1.2 model=1 kW=4.4719654544990375 kvar=1.0992469987144322 Phases=1 yearly=res_kw_1157_pu

New Load.load_p1ulv8376_2 conn=wye bus1=p1ulv8376.2 kV=0.12 Vminpu=0.8 Vmaxpu=1.2 model=1 kW=4.4719654544990375 kvar=1.0992469987144322 Phases=1 yearly=res_kw_1157_pu

New Load.load_p1ulv8378_1 conn=wye bus1=p1ulv8378.1 kV=0.12 Vminpu=0.8 Vmaxpu=1.2 model=1 kW=2.1894046505184286 kvar=0.7281040757251952 Phases=1 yearly=res_kw_1042_pu

New Load.load_p1ulv8378_2 conn=wye bus1=p1ulv8378.2 kV=0.12 Vminpu=0.8 Vmaxpu=1.2 model=1 kW=2.1894046505184286 kvar=0.7281040757251952 Phases=1 yearly=res_kw_1042_pu

New Load.load_p1ulv8379_1 conn=wye bus1=p1ulv8379.1 kV=0.12 Vminpu=0.8 Vmaxpu=1.2 model=1 kW=5.942686091683347 kvar=1.452957393533487 Phases=1 yearly=res_kw_772_pu

New Load.load_p1ulv8379_2 conn=wye bus1=p1ulv8379.2 kV=0.12 Vminpu=0.8 Vmaxpu=1.2 model=1 kW=5.942686091683347 kvar=1.452957393533487 Phases=1 yearly=res_kw_772_pu

New Load.load_p1ulv8381_1 conn=wye bus1=p1ulv8381.1 kV=0.12 Vminpu=0.8 Vmaxpu=1.2 model=1 kW=1.8618983584330409 kvar=0.7337589993741062 Phases=1 yearly=res_kw_141_pu

New Load.load_p1ulv8381_2 conn=wye bus1=p1ulv8381.2 kV=0.12 Vminpu=0.8 Vmaxpu=1.2 model=1 kW=1.8618983584330409 kvar=0.7337589993741062 Phases=1 yearly=res_kw_141_pu

New Load.load_p1ulv8382_1 conn=wye bus1=p1ulv8382.1 kV=0.12 Vminpu=0.8 Vmaxpu=1.2 model=1 kW=2.1376631749204993 kvar=0.6218033466021168 Phases=1 yearly=res_kw_93_pu

New Load.load_p1ulv8382_2 conn=wye bus1=p1ulv8382.2 kV=0.12 Vminpu=0.8 Vmaxpu=1.2 model=1 kW=2.1376631749204993 kvar=0.6218033466021168 Phases=1 yearly=res_kw_93_pu

New Load.load_p1ulv8384_1 conn=wye bus1=p1ulv8384.1 kV=0.12 Vminpu=0.8 Vmaxpu=1.2 model=1 kW=3.3701610259235064 kvar=1.065454990641787 Phases=1 yearly=res_kw_1037_pu

New Load.load_p1ulv8384_2 conn=wye bus1=p1ulv8384.2 kV=0.12 Vminpu=0.8 Vmaxpu=1.2 model=1 kW=3.3701610259235064 kvar=1.065454990641787 Phases=1 yearly=res_kw_1037_pu

New Load.load_p1ulv8389_1 conn=wye bus1=p1ulv8389.1 kV=0.12 Vminpu=0.8 Vmaxpu=1.2 model=1 kW=3.6844020253442458 kvar=1.4451491397155931 Phases=1 yearly=res_kw_1258_pu

New Load.load_p1ulv8389_2 conn=wye bus1=p1ulv8389.2 kV=0.12 Vminpu=0.8 Vmaxpu=1.2 model=1 kW=3.6844020253442458 kvar=1.4451491397155931 Phases=1 yearly=res_kw_1258_pu

New Load.load_p1ulv9462_1 conn=wye bus1=p1ulv9462.1 kV=0.12 Vminpu=0.8 Vmaxpu=1.2 model=1 kW=3.7358442183619687 kvar=0.8837352156355889 Phases=1 yearly=res_kw_522_pu

New Load.load_p1ulv9462_2 conn=wye bus1=p1ulv9462.2 kV=0.12 Vminpu=0.8 Vmaxpu=1.2 model=1 kW=3.7358442183619687 kvar=0.8837352156355889 Phases=1 yearly=res_kw_522_pu

New Load.load_p1ulv9463 conn=wye bus1=p1ulv9463.1.2.3 kV=0.48 Vminpu=0.8 Vmaxpu=1.2 model=1 kW=30.597237082697717 kvar=2.5659617796541316 Phases=3 yearly=com_kw_14351_pu

New Load.load_p1ulv9464_1 conn=wye bus1=p1ulv9464.1 kV=0.12 Vminpu=0.8 Vmaxpu=1.2 model=1 kW=6.847378896370207 kvar=0.2857422414791666 Phases=1 yearly=com_kw_14382_pu

New Load.load_p1ulv9464_2 conn=wye bus1=p1ulv9464.2 kV=0.12 Vminpu=0.8 Vmaxpu=1.2 model=1 kW=6.847378896370207 kvar=0.2857422414791666 Phases=1 yearly=com_kw_14382_pu

New Load.load_p1ulv9465_1 conn=wye bus1=p1ulv9465.1 kV=0.12 Vminpu=0.8 Vmaxpu=1.2 model=1 kW=6.139488924452324 kvar=1.0282575631325632 Phases=1 yearly=res_kw_421_pu

New Load.load_p1ulv9465_2 conn=wye bus1=p1ulv9465.2 kV=0.12 Vminpu=0.8 Vmaxpu=1.2 model=1 kW=6.139488924452324 kvar=1.0282575631325632 Phases=1 yearly=res_kw_421_pu

New Load.load_p1ulv9466_1 conn=wye bus1=p1ulv9466.1 kV=0.12 Vminpu=0.8 Vmaxpu=1.2 model=1 kW=6.2419949477893475 kvar=3.2518916743102033 Phases=1 yearly=res_kw_748_pu
