New Loadshape.GSO_36.0352_-79.9153_55_225 npts= 35040 interval=0.25 mult = (file=../../../../../profiles/GSO_36.0352_-79.9153_55_225.csv)

New Loadshape.GSO_36.0352_-79.9153_35_225 npts= 35040 interval=0.25 mult = (file=../../../../../profiles/GSO_36.0352_-79.9153_35_225.csv)

New Loadshape.GSO_36.0352_-79.9153_25_135 npts= 35040 interval=0.25 mult = (file=../../../../../profiles/GSO_36.0352_-79.9153_25_135.csv)

New Loadshape.GSO_36.0352_-79.9153_45_225 npts= 35040 interval=0.25 mult = (file=../../../../../profiles/GSO_36.0352_-79.9153_45_225.csv)

New Loadshape.GSO_36.0352_-79.9153_25_90 npts= 35040 interval=0.25 mult = (file=../../../../../profiles/GSO_36.0352_-79.9153_25_90.csv)

New Loadshape.GSO_36.0352_-79.9153_45_180 npts= 35040 interval=0.25 mult = (file=../../../../../profiles/GSO_36.0352_-79.9153_45_180.csv)

New Loadshape.GSO_36.0352_-79.9153_15_180 npts= 35040 interval=0.25 mult = (file=../../../../../profiles/GSO_36.0352_-79.9153_15_180.csv)

New Loadshape.GSO_36.0352_-79.9153_15_90 npts= 35040 interval=0.25 mult = (file=../../../../../profiles/GSO_36.0352_-79.9153_15_90.csv)

New Loadshape.GSO_36.0352_-79.9153_15_270 npts= 35040 interval=0.25 mult = (file=../../../../../profiles/GSO_36.0352_-79.9153_15_270.csv)

New Loadshape.GSO_36.0352_-79.9153_35_90 npts= 35040 interval=0.25 mult = (file=../../../../../profiles/GSO_36.0352_-79.9153_35_90.csv)

New Loadshape.GSO_36.0352_-79.9153_25_180 npts= 35040 interval=0.25 mult = (file=../../../../../profiles/GSO_36.0352_-79.9153_25_180.csv)

New Loadshape.GSO_36.0352_-79.9153_35_135 npts= 35040 interval=0.25 mult = (file=../../../../../profiles/GSO_36.0352_-79.9153_35_135.csv)

New Loadshape.GSO_36.0352_-79.9153_15_135 npts= 35040 interval=0.25 mult = (file=../../../../../profiles/GSO_36.0352_-79.9153_15_135.csv)

New Loadshape.GSO_36.0352_-79.9153_35_270 npts= 35040 interval=0.25 mult = (file=../../../../../profiles/GSO_36.0352_-79.9153_35_270.csv)

New Loadshape.GSO_36.0352_-79.9153_45_135 npts= 35040 interval=0.25 mult = (file=../../../../../profiles/GSO_36.0352_-79.9153_45_135.csv)

New Loadshape.GSO_36.0352_-79.9153_35_180 npts= 35040 interval=0.25 mult = (file=../../../../../profiles/GSO_36.0352_-79.9153_35_180.csv)

New Loadshape.GSO_36.0352_-79.9153_15_225 npts= 35040 interval=0.25 mult = (file=../../../../../profiles/GSO_36.0352_-79.9153_15_225.csv)

New Loadshape.GSO_36.0352_-79.9153_25_225 npts= 35040 interval=0.25 mult = (file=../../../../../profiles/GSO_36.0352_-79.9153_25_225.csv)

New Loadshape.GSO_36.0352_-79.9153_25_270 npts= 35040 interval=0.25 mult = (file=../../../../../profiles/GSO_36.0352_-79.9153_25_270.csv)

New Loadshape.GSO_36.0352_-79.9153_45_90 npts= 35040 interval=0.25 mult = (file=../../../../../profiles/GSO_36.0352_-79.9153_45_90.csv)

New Loadshape.GSO_36.0352_-79.9153_55_180 npts= 35040 interval=0.25 mult = (file=../../../../../profiles/GSO_36.0352_-79.9153_55_180.csv)

New Loadshape.GSO_36.0352_-79.9153_45_270 npts= 35040 interval=0.25 mult = (file=../../../../../profiles/GSO_36.0352_-79.9153_45_270.csv)

New Loadshape.GSO_36.0352_-79.9153_55_135 npts= 35040 interval=0.25 mult = (file=../../../../../profiles/GSO_36.0352_-79.9153_55_135.csv)

New Loadshape.res_kw_645_pu npts= 35040 interval=0.25 mult = (file=../../../../../profiles/res_kw_645_pu.csv) qmult = (file=../../../../../profiles/res_kvar_645_pu.csv)

New Loadshape.res_kw_523_pu npts= 35040 interval=0.25 mult = (file=../../../../../profiles/res_kw_523_pu.csv) qmult = (file=../../../../../profiles/res_kvar_523_pu.csv)

New Loadshape.res_kw_33_pu npts= 35040 interval=0.25 mult = (file=../../../../../profiles/res_kw_33_pu.csv) qmult = (file=../../../../../profiles/res_kvar_33_pu.csv)

New Loadshape.res_kw_695_pu npts= 35040 interval=0.25 mult = (file=../../../../../profiles/res_kw_695_pu.csv) qmult = (file=../../../../../profiles/res_kvar_695_pu.csv)

New Loadshape.res_kw_1149_pu npts= 35040 interval=0.25 mult = (file=../../../../../profiles/res_kw_1149_pu.csv) qmult = (file=../../../../../profiles/res_kvar_1149_pu.csv)

New Loadshape.res_kw_532_pu npts= 35040 interval=0.25 mult = (file=../../../../../profiles/res_kw_532_pu.csv) qmult = (file=../../../../../profiles/res_kvar_532_pu.csv)

New Loadshape.res_kw_40_pu npts= 35040 interval=0.25 mult = (file=../../../../../profiles/res_kw_40_pu.csv) qmult = (file=../../../../../profiles/res_kvar_40_pu.csv)

New Loadshape.res_kw_504_pu npts= 35040 interval=0.25 mult = (file=../../../../../profiles/res_kw_504_pu.csv) qmult = (file=../../../../../profiles/res_kvar_504_pu.csv)

New Loadshape.res_kw_1177_pu npts= 35040 interval=0.25 mult = (file=../../../../../profiles/res_kw_1177_pu.csv) qmult = (file=../../../../../profiles/res_kvar_1177_pu.csv)

New Loadshape.res_kw_1067_pu npts= 35040 interval=0.25 mult = (file=../../../../../profiles/res_kw_1067_pu.csv) qmult = (file=../../../../../profiles/res_kvar_1067_pu.csv)

New Loadshape.res_kw_452_pu npts= 35040 interval=0.25 mult = (file=../../../../../profiles/res_kw_452_pu.csv) qmult = (file=../../../../../profiles/res_kvar_452_pu.csv)

New Loadshape.res_kw_141_pu npts= 35040 interval=0.25 mult = (file=../../../../../profiles/res_kw_141_pu.csv) qmult = (file=../../../../../profiles/res_kvar_141_pu.csv)

New Loadshape.res_kw_1186_pu npts= 35040 interval=0.25 mult = (file=../../../../../profiles/res_kw_1186_pu.csv) qmult = (file=../../../../../profiles/res_kvar_1186_pu.csv)

New Loadshape.res_kw_93_pu npts= 35040 interval=0.25 mult = (file=../../../../../profiles/res_kw_93_pu.csv) qmult = (file=../../../../../profiles/res_kvar_93_pu.csv)

New Loadshape.res_kw_305_pu npts= 35040 interval=0.25 mult = (file=../../../../../profiles/res_kw_305_pu.csv) qmult = (file=../../../../../profiles/res_kvar_305_pu.csv)

New Loadshape.res_kw_959_pu npts= 35040 interval=0.25 mult = (file=../../../../../profiles/res_kw_959_pu.csv) qmult = (file=../../../../../profiles/res_kvar_959_pu.csv)

New Loadshape.res_kw_460_pu npts= 35040 interval=0.25 mult = (file=../../../../../profiles/res_kw_460_pu.csv) qmult = (file=../../../../../profiles/res_kvar_460_pu.csv)

New Loadshape.res_kw_24_pu npts= 35040 interval=0.25 mult = (file=../../../../../profiles/res_kw_24_pu.csv) qmult = (file=../../../../../profiles/res_kvar_24_pu.csv)

New Loadshape.res_kw_39_pu npts= 35040 interval=0.25 mult = (file=../../../../../profiles/res_kw_39_pu.csv) qmult = (file=../../../../../profiles/res_kvar_39_pu.csv)

New Loadshape.res_kw_455_pu npts= 35040 interval=0.25 mult = (file=../../../../../profiles/res_kw_455_pu.csv) qmult = (file=../../../../../profiles/res_kvar_455_pu.csv)

New Loadshape.res_kw_1042_pu npts= 35040 interval=0.25 mult = (file=../../../../../profiles/res_kw_1042_pu.csv) qmult = (file=../../../../../profiles/res_kvar_1042_pu.csv)

New Loadshape.res_kw_512_pu npts= 35040 interval=0.25 mult = (file=../../../../../profiles/res_kw_512_pu.csv) qmult = (file=../../../../../profiles/res_kvar_512_pu.csv)

New Loadshape.res_kw_1276_pu npts= 35040 interval=0.25 mult = (file=../../../../../profiles/res_kw_1276_pu.csv) qmult = (file=../../../../../profiles/res_kvar_1276_pu.csv)

New Loadshape.res_kw_407_pu npts= 35040 interval=0.25 mult = (file=../../../../../profiles/res_kw_407_pu.csv) qmult = (file=../../../../../profiles/res_kvar_407_pu.csv)

New Loadshape.res_kw_62_pu npts= 35040 interval=0.25 mult = (file=../../../../../profiles/res_kw_62_pu.csv) qmult = (file=../../../../../profiles/res_kvar_62_pu.csv)

New Loadshape.res_kw_1229_pu npts= 35040 interval=0.25 mult = (file=../../../../../profiles/res_kw_1229_pu.csv) qmult = (file=../../../../../profiles/res_kvar_1229_pu.csv)

New Loadshape.res_kw_324_pu npts= 35040 interval=0.25 mult = (file=../../../../../profiles/res_kw_324_pu.csv) qmult = (file=../../../../../profiles/res_kvar_324_pu.csv)

New Loadshape.res_kw_517_pu npts= 35040 interval=0.25 mult = (file=../../../../../profiles/res_kw_517_pu.csv) qmult = (file=../../../../../profiles/res_kvar_517_pu.csv)

New Loadshape.res_kw_1267_pu npts= 35040 interval=0.25 mult = (file=../../../../../profiles/res_kw_1267_pu.csv) qmult = (file=../../../../../profiles/res_kvar_1267_pu.csv)

New Loadshape.res_kw_707_pu npts= 35040 interval=0.25 mult = (file=../../../../../profiles/res_kw_707_pu.csv) qmult = (file=../../../../../profiles/res_kvar_707_pu.csv)

New Loadshape.res_kw_861_pu npts= 35040 interval=0.25 mult = (file=../../../../../profiles/res_kw_861_pu.csv) qmult = (file=../../../../../profiles/res_kvar_861_pu.csv)

New Loadshape.res_kw_842_pu npts= 35040 interval=0.25 mult = (file=../../../../../profiles/res_kw_842_pu.csv) qmult = (file=../../../../../profiles/res_kvar_842_pu.csv)

New Loadshape.res_kw_1105_pu npts= 35040 interval=0.25 mult = (file=../../../../../profiles/res_kw_1105_pu.csv) qmult = (file=../../../../../profiles/res_kvar_1105_pu.csv)

New Loadshape.res_kw_514_pu npts= 35040 interval=0.25 mult = (file=../../../../../profiles/res_kw_514_pu.csv) qmult = (file=../../../../../profiles/res_kvar_514_pu.csv)

New Loadshape.res_kw_1037_pu npts= 35040 interval=0.25 mult = (file=../../../../../profiles/res_kw_1037_pu.csv) qmult = (file=../../../../../profiles/res_kvar_1037_pu.csv)

New Loadshape.res_kw_1115_pu npts= 35040 interval=0.25 mult = (file=../../../../../profiles/res_kw_1115_pu.csv) qmult = (file=../../../../../profiles/res_kvar_1115_pu.csv)

New Loadshape.res_kw_599_pu npts= 35040 interval=0.25 mult = (file=../../../../../profiles/res_kw_599_pu.csv) qmult = (file=../../../../../profiles/res_kvar_599_pu.csv)

New Loadshape.res_kw_314_pu npts= 35040 interval=0.25 mult = (file=../../../../../profiles/res_kw_314_pu.csv) qmult = (file=../../../../../profiles/res_kvar_314_pu.csv)

New Loadshape.res_kw_1205_pu npts= 35040 interval=0.25 mult = (file=../../../../../profiles/res_kw_1205_pu.csv) qmult = (file=../../../../../profiles/res_kvar_1205_pu.csv)

New Loadshape.res_kw_1023_pu npts= 35040 interval=0.25 mult = (file=../../../../../profiles/res_kw_1023_pu.csv) qmult = (file=../../../../../profiles/res_kvar_1023_pu.csv)

New Loadshape.res_kw_182_pu npts= 35040 interval=0.25 mult = (file=../../../../../profiles/res_kw_182_pu.csv) qmult = (file=../../../../../profiles/res_kvar_182_pu.csv)

New Loadshape.res_kw_393_pu npts= 35040 interval=0.25 mult = (file=../../../../../profiles/res_kw_393_pu.csv) qmult = (file=../../../../../profiles/res_kvar_393_pu.csv)

New Loadshape.res_kw_1256_pu npts= 35040 interval=0.25 mult = (file=../../../../../profiles/res_kw_1256_pu.csv) qmult = (file=../../../../../profiles/res_kvar_1256_pu.csv)

New Loadshape.res_kw_497_pu npts= 35040 interval=0.25 mult = (file=../../../../../profiles/res_kw_497_pu.csv) qmult = (file=../../../../../profiles/res_kvar_497_pu.csv)

New Loadshape.res_kw_558_pu npts= 35040 interval=0.25 mult = (file=../../../../../profiles/res_kw_558_pu.csv) qmult = (file=../../../../../profiles/res_kvar_558_pu.csv)

New Loadshape.res_kw_250_pu npts= 35040 interval=0.25 mult = (file=../../../../../profiles/res_kw_250_pu.csv) qmult = (file=../../../../../profiles/res_kvar_250_pu.csv)

New Loadshape.res_kw_473_pu npts= 35040 interval=0.25 mult = (file=../../../../../profiles/res_kw_473_pu.csv) qmult = (file=../../../../../profiles/res_kvar_473_pu.csv)

New Loadshape.res_kw_748_pu npts= 35040 interval=0.25 mult = (file=../../../../../profiles/res_kw_748_pu.csv) qmult = (file=../../../../../profiles/res_kvar_748_pu.csv)

New Loadshape.res_kw_863_pu npts= 35040 interval=0.25 mult = (file=../../../../../profiles/res_kw_863_pu.csv) qmult = (file=../../../../../profiles/res_kvar_863_pu.csv)

New Loadshape.res_kw_807_pu npts= 35040 interval=0.25 mult = (file=../../../../../profiles/res_kw_807_pu.csv) qmult = (file=../../../../../profiles/res_kvar_807_pu.csv)

New Loadshape.res_kw_794_pu npts= 35040 interval=0.25 mult = (file=../../../../../profiles/res_kw_794_pu.csv) qmult = (file=../../../../../profiles/res_kvar_794_pu.csv)

New Loadshape.res_kw_325_pu npts= 35040 interval=0.25 mult = (file=../../../../../profiles/res_kw_325_pu.csv) qmult = (file=../../../../../profiles/res_kvar_325_pu.csv)

New Loadshape.res_kw_263_pu npts= 35040 interval=0.25 mult = (file=../../../../../profiles/res_kw_263_pu.csv) qmult = (file=../../../../../profiles/res_kvar_263_pu.csv)

New Loadshape.res_kw_271_pu npts= 35040 interval=0.25 mult = (file=../../../../../profiles/res_kw_271_pu.csv) qmult = (file=../../../../../profiles/res_kvar_271_pu.csv)

New Loadshape.res_kw_272_pu npts= 35040 interval=0.25 mult = (file=../../../../../profiles/res_kw_272_pu.csv) qmult = (file=../../../../../profiles/res_kvar_272_pu.csv)

New Loadshape.res_kw_630_pu npts= 35040 interval=0.25 mult = (file=../../../../../profiles/res_kw_630_pu.csv) qmult = (file=../../../../../profiles/res_kvar_630_pu.csv)

New Loadshape.res_kw_795_pu npts= 35040 interval=0.25 mult = (file=../../../../../profiles/res_kw_795_pu.csv) qmult = (file=../../../../../profiles/res_kvar_795_pu.csv)

New Loadshape.res_kw_1258_pu npts= 35040 interval=0.25 mult = (file=../../../../../profiles/res_kw_1258_pu.csv) qmult = (file=../../../../../profiles/res_kvar_1258_pu.csv)

New Loadshape.res_kw_76_pu npts= 35040 interval=0.25 mult = (file=../../../../../profiles/res_kw_76_pu.csv) qmult = (file=../../../../../profiles/res_kvar_76_pu.csv)

New Loadshape.res_kw_617_pu npts= 35040 interval=0.25 mult = (file=../../../../../profiles/res_kw_617_pu.csv) qmult = (file=../../../../../profiles/res_kvar_617_pu.csv)

New Loadshape.res_kw_197_pu npts= 35040 interval=0.25 mult = (file=../../../../../profiles/res_kw_197_pu.csv) qmult = (file=../../../../../profiles/res_kvar_197_pu.csv)

New Loadshape.res_kw_1094_pu npts= 35040 interval=0.25 mult = (file=../../../../../profiles/res_kw_1094_pu.csv) qmult = (file=../../../../../profiles/res_kvar_1094_pu.csv)

New Loadshape.res_kw_825_pu npts= 35040 interval=0.25 mult = (file=../../../../../profiles/res_kw_825_pu.csv) qmult = (file=../../../../../profiles/res_kvar_825_pu.csv)

New Loadshape.res_kw_1083_pu npts= 35040 interval=0.25 mult = (file=../../../../../profiles/res_kw_1083_pu.csv) qmult = (file=../../../../../profiles/res_kvar_1083_pu.csv)

New Loadshape.res_kw_317_pu npts= 35040 interval=0.25 mult = (file=../../../../../profiles/res_kw_317_pu.csv) qmult = (file=../../../../../profiles/res_kvar_317_pu.csv)

New Loadshape.res_kw_470_pu npts= 35040 interval=0.25 mult = (file=../../../../../profiles/res_kw_470_pu.csv) qmult = (file=../../../../../profiles/res_kvar_470_pu.csv)

New Loadshape.res_kw_1248_pu npts= 35040 interval=0.25 mult = (file=../../../../../profiles/res_kw_1248_pu.csv) qmult = (file=../../../../../profiles/res_kvar_1248_pu.csv)

New Loadshape.res_kw_207_pu npts= 35040 interval=0.25 mult = (file=../../../../../profiles/res_kw_207_pu.csv) qmult = (file=../../../../../profiles/res_kvar_207_pu.csv)

New Loadshape.res_kw_1273_pu npts= 35040 interval=0.25 mult = (file=../../../../../profiles/res_kw_1273_pu.csv) qmult = (file=../../../../../profiles/res_kvar_1273_pu.csv)

New Loadshape.res_kw_670_pu npts= 35040 interval=0.25 mult = (file=../../../../../profiles/res_kw_670_pu.csv) qmult = (file=../../../../../profiles/res_kvar_670_pu.csv)

New Loadshape.res_kw_259_pu npts= 35040 interval=0.25 mult = (file=../../../../../profiles/res_kw_259_pu.csv) qmult = (file=../../../../../profiles/res_kvar_259_pu.csv)

New Loadshape.res_kw_454_pu npts= 35040 interval=0.25 mult = (file=../../../../../profiles/res_kw_454_pu.csv) qmult = (file=../../../../../profiles/res_kvar_454_pu.csv)

New Loadshape.res_kw_819_pu npts= 35040 interval=0.25 mult = (file=../../../../../profiles/res_kw_819_pu.csv) qmult = (file=../../../../../profiles/res_kvar_819_pu.csv)

New Loadshape.res_kw_97_pu npts= 35040 interval=0.25 mult = (file=../../../../../profiles/res_kw_97_pu.csv) qmult = (file=../../../../../profiles/res_kvar_97_pu.csv)

New Loadshape.res_kw_879_pu npts= 35040 interval=0.25 mult = (file=../../../../../profiles/res_kw_879_pu.csv) qmult = (file=../../../../../profiles/res_kvar_879_pu.csv)

New Loadshape.res_kw_461_pu npts= 35040 interval=0.25 mult = (file=../../../../../profiles/res_kw_461_pu.csv) qmult = (file=../../../../../profiles/res_kvar_461_pu.csv)

New Loadshape.res_kw_932_pu npts= 35040 interval=0.25 mult = (file=../../../../../profiles/res_kw_932_pu.csv) qmult = (file=../../../../../profiles/res_kvar_932_pu.csv)

New Loadshape.res_kw_822_pu npts= 35040 interval=0.25 mult = (file=../../../../../profiles/res_kw_822_pu.csv) qmult = (file=../../../../../profiles/res_kvar_822_pu.csv)

New Loadshape.res_kw_20_pu npts= 35040 interval=0.25 mult = (file=../../../../../profiles/res_kw_20_pu.csv) qmult = (file=../../../../../profiles/res_kvar_20_pu.csv)

New Loadshape.res_kw_1036_pu npts= 35040 interval=0.25 mult = (file=../../../../../profiles/res_kw_1036_pu.csv) qmult = (file=../../../../../profiles/res_kvar_1036_pu.csv)

New Loadshape.res_kw_278_pu npts= 35040 interval=0.25 mult = (file=../../../../../profiles/res_kw_278_pu.csv) qmult = (file=../../../../../profiles/res_kvar_278_pu.csv)

New Loadshape.res_kw_691_pu npts= 35040 interval=0.25 mult = (file=../../../../../profiles/res_kw_691_pu.csv) qmult = (file=../../../../../profiles/res_kvar_691_pu.csv)

New Loadshape.res_kw_421_pu npts= 35040 interval=0.25 mult = (file=../../../../../profiles/res_kw_421_pu.csv) qmult = (file=../../../../../profiles/res_kvar_421_pu.csv)

New Loadshape.res_kw_1160_pu npts= 35040 interval=0.25 mult = (file=../../../../../profiles/res_kw_1160_pu.csv) qmult = (file=../../../../../profiles/res_kvar_1160_pu.csv)

New Loadshape.res_kw_280_pu npts= 35040 interval=0.25 mult = (file=../../../../../profiles/res_kw_280_pu.csv) qmult = (file=../../../../../profiles/res_kvar_280_pu.csv)

New Loadshape.res_kw_1283_pu npts= 35040 interval=0.25 mult = (file=../../../../../profiles/res_kw_1283_pu.csv) qmult = (file=../../../../../profiles/res_kvar_1283_pu.csv)

New Loadshape.res_kw_199_pu npts= 35040 interval=0.25 mult = (file=../../../../../profiles/res_kw_199_pu.csv) qmult = (file=../../../../../profiles/res_kvar_199_pu.csv)

New Loadshape.res_kw_283_pu npts= 35040 interval=0.25 mult = (file=../../../../../profiles/res_kw_283_pu.csv) qmult = (file=../../../../../profiles/res_kvar_283_pu.csv)

New Loadshape.res_kw_780_pu npts= 35040 interval=0.25 mult = (file=../../../../../profiles/res_kw_780_pu.csv) qmult = (file=../../../../../profiles/res_kvar_780_pu.csv)

New Loadshape.res_kw_627_pu npts= 35040 interval=0.25 mult = (file=../../../../../profiles/res_kw_627_pu.csv) qmult = (file=../../../../../profiles/res_kvar_627_pu.csv)

New Loadshape.res_kw_597_pu npts= 35040 interval=0.25 mult = (file=../../../../../profiles/res_kw_597_pu.csv) qmult = (file=../../../../../profiles/res_kvar_597_pu.csv)

New Loadshape.res_kw_793_pu npts= 35040 interval=0.25 mult = (file=../../../../../profiles/res_kw_793_pu.csv) qmult = (file=../../../../../profiles/res_kvar_793_pu.csv)

New Loadshape.res_kw_409_pu npts= 35040 interval=0.25 mult = (file=../../../../../profiles/res_kw_409_pu.csv) qmult = (file=../../../../../profiles/res_kvar_409_pu.csv)

New Loadshape.res_kw_1099_pu npts= 35040 interval=0.25 mult = (file=../../../../../profiles/res_kw_1099_pu.csv) qmult = (file=../../../../../profiles/res_kvar_1099_pu.csv)

New Loadshape.res_kw_585_pu npts= 35040 interval=0.25 mult = (file=../../../../../profiles/res_kw_585_pu.csv) qmult = (file=../../../../../profiles/res_kvar_585_pu.csv)

New Loadshape.res_kw_331_pu npts= 35040 interval=0.25 mult = (file=../../../../../profiles/res_kw_331_pu.csv) qmult = (file=../../../../../profiles/res_kvar_331_pu.csv)

New Loadshape.res_kw_245_pu npts= 35040 interval=0.25 mult = (file=../../../../../profiles/res_kw_245_pu.csv) qmult = (file=../../../../../profiles/res_kvar_245_pu.csv)

New Loadshape.res_kw_146_pu npts= 35040 interval=0.25 mult = (file=../../../../../profiles/res_kw_146_pu.csv) qmult = (file=../../../../../profiles/res_kvar_146_pu.csv)

New Loadshape.res_kw_162_pu npts= 35040 interval=0.25 mult = (file=../../../../../profiles/res_kw_162_pu.csv) qmult = (file=../../../../../profiles/res_kvar_162_pu.csv)

New Loadshape.res_kw_453_pu npts= 35040 interval=0.25 mult = (file=../../../../../profiles/res_kw_453_pu.csv) qmult = (file=../../../../../profiles/res_kvar_453_pu.csv)

New Loadshape.res_kw_416_pu npts= 35040 interval=0.25 mult = (file=../../../../../profiles/res_kw_416_pu.csv) qmult = (file=../../../../../profiles/res_kvar_416_pu.csv)

New Loadshape.res_kw_1228_pu npts= 35040 interval=0.25 mult = (file=../../../../../profiles/res_kw_1228_pu.csv) qmult = (file=../../../../../profiles/res_kvar_1228_pu.csv)

New Loadshape.res_kw_205_pu npts= 35040 interval=0.25 mult = (file=../../../../../profiles/res_kw_205_pu.csv) qmult = (file=../../../../../profiles/res_kvar_205_pu.csv)

New Loadshape.res_kw_380_pu npts= 35040 interval=0.25 mult = (file=../../../../../profiles/res_kw_380_pu.csv) qmult = (file=../../../../../profiles/res_kvar_380_pu.csv)

New Loadshape.res_kw_582_pu npts= 35040 interval=0.25 mult = (file=../../../../../profiles/res_kw_582_pu.csv) qmult = (file=../../../../../profiles/res_kvar_582_pu.csv)

New Loadshape.res_kw_1041_pu npts= 35040 interval=0.25 mult = (file=../../../../../profiles/res_kw_1041_pu.csv) qmult = (file=../../../../../profiles/res_kvar_1041_pu.csv)

New Loadshape.res_kw_21_pu npts= 35040 interval=0.25 mult = (file=../../../../../profiles/res_kw_21_pu.csv) qmult = (file=../../../../../profiles/res_kvar_21_pu.csv)

New Loadshape.res_kw_809_pu npts= 35040 interval=0.25 mult = (file=../../../../../profiles/res_kw_809_pu.csv) qmult = (file=../../../../../profiles/res_kvar_809_pu.csv)

New Loadshape.res_kw_239_pu npts= 35040 interval=0.25 mult = (file=../../../../../profiles/res_kw_239_pu.csv) qmult = (file=../../../../../profiles/res_kvar_239_pu.csv)

New Loadshape.res_kw_203_pu npts= 35040 interval=0.25 mult = (file=../../../../../profiles/res_kw_203_pu.csv) qmult = (file=../../../../../profiles/res_kvar_203_pu.csv)

New Loadshape.res_kw_4_pu npts= 35040 interval=0.25 mult = (file=../../../../../profiles/res_kw_4_pu.csv) qmult = (file=../../../../../profiles/res_kvar_4_pu.csv)

New Loadshape.res_kw_1157_pu npts= 35040 interval=0.25 mult = (file=../../../../../profiles/res_kw_1157_pu.csv) qmult = (file=../../../../../profiles/res_kvar_1157_pu.csv)

New Loadshape.res_kw_598_pu npts= 35040 interval=0.25 mult = (file=../../../../../profiles/res_kw_598_pu.csv) qmult = (file=../../../../../profiles/res_kvar_598_pu.csv)

New Loadshape.res_kw_408_pu npts= 35040 interval=0.25 mult = (file=../../../../../profiles/res_kw_408_pu.csv) qmult = (file=../../../../../profiles/res_kvar_408_pu.csv)

New Loadshape.res_kw_304_pu npts= 35040 interval=0.25 mult = (file=../../../../../profiles/res_kw_304_pu.csv) qmult = (file=../../../../../profiles/res_kvar_304_pu.csv)

New Loadshape.res_kw_128_pu npts= 35040 interval=0.25 mult = (file=../../../../../profiles/res_kw_128_pu.csv) qmult = (file=../../../../../profiles/res_kvar_128_pu.csv)

New Loadshape.res_kw_653_pu npts= 35040 interval=0.25 mult = (file=../../../../../profiles/res_kw_653_pu.csv) qmult = (file=../../../../../profiles/res_kvar_653_pu.csv)

New Loadshape.res_kw_715_pu npts= 35040 interval=0.25 mult = (file=../../../../../profiles/res_kw_715_pu.csv) qmult = (file=../../../../../profiles/res_kvar_715_pu.csv)

New Loadshape.res_kw_1220_pu npts= 35040 interval=0.25 mult = (file=../../../../../profiles/res_kw_1220_pu.csv) qmult = (file=../../../../../profiles/res_kvar_1220_pu.csv)

New Loadshape.res_kw_701_pu npts= 35040 interval=0.25 mult = (file=../../../../../profiles/res_kw_701_pu.csv) qmult = (file=../../../../../profiles/res_kvar_701_pu.csv)

New Loadshape.res_kw_1223_pu npts= 35040 interval=0.25 mult = (file=../../../../../profiles/res_kw_1223_pu.csv) qmult = (file=../../../../../profiles/res_kvar_1223_pu.csv)

New Loadshape.res_kw_1104_pu npts= 35040 interval=0.25 mult = (file=../../../../../profiles/res_kw_1104_pu.csv) qmult = (file=../../../../../profiles/res_kvar_1104_pu.csv)

New Loadshape.res_kw_736_pu npts= 35040 interval=0.25 mult = (file=../../../../../profiles/res_kw_736_pu.csv) qmult = (file=../../../../../profiles/res_kvar_736_pu.csv)

New Loadshape.res_kw_931_pu npts= 35040 interval=0.25 mult = (file=../../../../../profiles/res_kw_931_pu.csv) qmult = (file=../../../../../profiles/res_kvar_931_pu.csv)

New Loadshape.res_kw_211_pu npts= 35040 interval=0.25 mult = (file=../../../../../profiles/res_kw_211_pu.csv) qmult = (file=../../../../../profiles/res_kvar_211_pu.csv)

New Loadshape.res_kw_98_pu npts= 35040 interval=0.25 mult = (file=../../../../../profiles/res_kw_98_pu.csv) qmult = (file=../../../../../profiles/res_kvar_98_pu.csv)

New Loadshape.res_kw_664_pu npts= 35040 interval=0.25 mult = (file=../../../../../profiles/res_kw_664_pu.csv) qmult = (file=../../../../../profiles/res_kvar_664_pu.csv)

New Loadshape.res_kw_577_pu npts= 35040 interval=0.25 mult = (file=../../../../../profiles/res_kw_577_pu.csv) qmult = (file=../../../../../profiles/res_kvar_577_pu.csv)

New Loadshape.res_kw_1162_pu npts= 35040 interval=0.25 mult = (file=../../../../../profiles/res_kw_1162_pu.csv) qmult = (file=../../../../../profiles/res_kvar_1162_pu.csv)

New Loadshape.res_kw_222_pu npts= 35040 interval=0.25 mult = (file=../../../../../profiles/res_kw_222_pu.csv) qmult = (file=../../../../../profiles/res_kvar_222_pu.csv)

New Loadshape.res_kw_772_pu npts= 35040 interval=0.25 mult = (file=../../../../../profiles/res_kw_772_pu.csv) qmult = (file=../../../../../profiles/res_kvar_772_pu.csv)

New Loadshape.res_kw_526_pu npts= 35040 interval=0.25 mult = (file=../../../../../profiles/res_kw_526_pu.csv) qmult = (file=../../../../../profiles/res_kvar_526_pu.csv)

New Loadshape.res_kw_82_pu npts= 35040 interval=0.25 mult = (file=../../../../../profiles/res_kw_82_pu.csv) qmult = (file=../../../../../profiles/res_kvar_82_pu.csv)

New Loadshape.com_kw_14407_pu npts= 35040 interval=0.25 mult = (file=../../../../../profiles/com_kw_14407_pu.csv) qmult = (file=../../../../../profiles/com_kvar_14407_pu.csv)

New Loadshape.com_kw_15157_pu npts= 35040 interval=0.25 mult = (file=../../../../../profiles/com_kw_15157_pu.csv) qmult = (file=../../../../../profiles/com_kvar_15157_pu.csv)

New Loadshape.com_kw_14117_pu npts= 35040 interval=0.25 mult = (file=../../../../../profiles/com_kw_14117_pu.csv) qmult = (file=../../../../../profiles/com_kvar_14117_pu.csv)

New Loadshape.com_kw_14056_pu npts= 35040 interval=0.25 mult = (file=../../../../../profiles/com_kw_14056_pu.csv) qmult = (file=../../../../../profiles/com_kvar_14056_pu.csv)

New Loadshape.com_kw_13018_pu npts= 35040 interval=0.25 mult = (file=../../../../../profiles/com_kw_13018_pu.csv) qmult = (file=../../../../../profiles/com_kvar_13018_pu.csv)

New Loadshape.com_kw_13578_pu npts= 35040 interval=0.25 mult = (file=../../../../../profiles/com_kw_13578_pu.csv) qmult = (file=../../../../../profiles/com_kvar_13578_pu.csv)

New Loadshape.com_kw_14976_pu npts= 35040 interval=0.25 mult = (file=../../../../../profiles/com_kw_14976_pu.csv) qmult = (file=../../../../../profiles/com_kvar_14976_pu.csv)

New Loadshape.com_kw_13121_pu npts= 35040 interval=0.25 mult = (file=../../../../../profiles/com_kw_13121_pu.csv) qmult = (file=../../../../../profiles/com_kvar_13121_pu.csv)

New Loadshape.com_kw_14402_pu npts= 35040 interval=0.25 mult = (file=../../../../../profiles/com_kw_14402_pu.csv) qmult = (file=../../../../../profiles/com_kvar_14402_pu.csv)

New Loadshape.com_kw_13393_pu npts= 35040 interval=0.25 mult = (file=../../../../../profiles/com_kw_13393_pu.csv) qmult = (file=../../../../../profiles/com_kvar_13393_pu.csv)

New Loadshape.com_kw_14772_pu npts= 35040 interval=0.25 mult = (file=../../../../../profiles/com_kw_14772_pu.csv) qmult = (file=../../../../../profiles/com_kvar_14772_pu.csv)

New Loadshape.com_kw_14932_pu npts= 35040 interval=0.25 mult = (file=../../../../../profiles/com_kw_14932_pu.csv) qmult = (file=../../../../../profiles/com_kvar_14932_pu.csv)

New Loadshape.com_kw_13828_pu npts= 35040 interval=0.25 mult = (file=../../../../../profiles/com_kw_13828_pu.csv) qmult = (file=../../../../../profiles/com_kvar_13828_pu.csv)

New Loadshape.com_kw_15224_pu npts= 35040 interval=0.25 mult = (file=../../../../../profiles/com_kw_15224_pu.csv) qmult = (file=../../../../../profiles/com_kvar_15224_pu.csv)

New Loadshape.com_kw_14382_pu npts= 35040 interval=0.25 mult = (file=../../../../../profiles/com_kw_14382_pu.csv) qmult = (file=../../../../../profiles/com_kvar_14382_pu.csv)

New Loadshape.com_kw_13515_pu npts= 35040 interval=0.25 mult = (file=../../../../../profiles/com_kw_13515_pu.csv) qmult = (file=../../../../../profiles/com_kvar_13515_pu.csv)

New Loadshape.com_kw_14904_pu npts= 35040 interval=0.25 mult = (file=../../../../../profiles/com_kw_14904_pu.csv) qmult = (file=../../../../../profiles/com_kvar_14904_pu.csv)

New Loadshape.com_kw_14549_pu npts= 35040 interval=0.25 mult = (file=../../../../../profiles/com_kw_14549_pu.csv) qmult = (file=../../../../../profiles/com_kvar_14549_pu.csv)

New Loadshape.com_kw_14612_pu npts= 35040 interval=0.25 mult = (file=../../../../../profiles/com_kw_14612_pu.csv) qmult = (file=../../../../../profiles/com_kvar_14612_pu.csv)

New Loadshape.com_kw_13807_pu npts= 35040 interval=0.25 mult = (file=../../../../../profiles/com_kw_13807_pu.csv) qmult = (file=../../../../../profiles/com_kvar_13807_pu.csv)

New Loadshape.com_kw_13386_pu npts= 35040 interval=0.25 mult = (file=../../../../../profiles/com_kw_13386_pu.csv) qmult = (file=../../../../../profiles/com_kvar_13386_pu.csv)

New Loadshape.com_kw_14277_pu npts= 35040 interval=0.25 mult = (file=../../../../../profiles/com_kw_14277_pu.csv) qmult = (file=../../../../../profiles/com_kvar_14277_pu.csv)

New Loadshape.com_kw_14883_pu npts= 35040 interval=0.25 mult = (file=../../../../../profiles/com_kw_14883_pu.csv) qmult = (file=../../../../../profiles/com_kvar_14883_pu.csv)
