New Load.load_p1ulv347_1 conn=wye bus1=p1ulv347.1 kV=0.12 Vminpu=0.8 Vmaxpu=1.2 model=1 kW=4.897278139879629 kvar=1.0793580648076895 Phases=1 yearly=res_kw_645_pu

New Load.load_p1ulv347_2 conn=wye bus1=p1ulv347.2 kV=0.12 Vminpu=0.8 Vmaxpu=1.2 model=1 kW=4.897278139879629 kvar=1.0793580648076895 Phases=1 yearly=res_kw_645_pu

New Load.load_p1ulv350_1 conn=wye bus1=p1ulv350.1 kV=0.12 Vminpu=0.8 Vmaxpu=1.2 model=1 kW=3.3641909207712115 kvar=0.9284266244461494 Phases=1 yearly=res_kw_523_pu

New Load.load_p1ulv350_2 conn=wye bus1=p1ulv350.2 kV=0.12 Vminpu=0.8 Vmaxpu=1.2 model=1 kW=3.3641909207712115 kvar=0.9284266244461494 Phases=1 yearly=res_kw_523_pu

New Load.load_p1ulv352_1 conn=wye bus1=p1ulv352.1 kV=0.12 Vminpu=0.8 Vmaxpu=1.2 model=1 kW=2.6241521841182514 kvar=0.8429304779950015 Phases=1 yearly=res_kw_33_pu

New Load.load_p1ulv352_2 conn=wye bus1=p1ulv352.2 kV=0.12 Vminpu=0.8 Vmaxpu=1.2 model=1 kW=2.6241521841182514 kvar=0.8429304779950015 Phases=1 yearly=res_kw_33_pu

New Load.load_p1ulv353_1 conn=wye bus1=p1ulv353.1 kV=0.12 Vminpu=0.8 Vmaxpu=1.2 model=1 kW=8.04422437787292 kvar=1.3373848866311981 Phases=1 yearly=res_kw_695_pu

New Load.load_p1ulv353_2 conn=wye bus1=p1ulv353.2 kV=0.12 Vminpu=0.8 Vmaxpu=1.2 model=1 kW=8.04422437787292 kvar=1.3373848866311981 Phases=1 yearly=res_kw_695_pu

New Load.load_p1ulv356_1 conn=wye bus1=p1ulv356.1 kV=0.12 Vminpu=0.8 Vmaxpu=1.2 model=1 kW=2.9178485115923896 kvar=1.0715119122844614 Phases=1 yearly=res_kw_1149_pu

New Load.load_p1ulv356_2 conn=wye bus1=p1ulv356.2 kV=0.12 Vminpu=0.8 Vmaxpu=1.2 model=1 kW=2.9178485115923896 kvar=1.0715119122844614 Phases=1 yearly=res_kw_1149_pu

New Load.load_p1ulv357_1 conn=wye bus1=p1ulv357.1 kV=0.12 Vminpu=0.8 Vmaxpu=1.2 model=1 kW=1.8636614682402992 kvar=0.5015179682387616 Phases=1 yearly=res_kw_532_pu

New Load.load_p1ulv357_2 conn=wye bus1=p1ulv357.2 kV=0.12 Vminpu=0.8 Vmaxpu=1.2 model=1 kW=1.8636614682402992 kvar=0.5015179682387616 Phases=1 yearly=res_kw_532_pu

New Load.load_p1ulv367_1 conn=wye bus1=p1ulv367.1 kV=0.12 Vminpu=0.8 Vmaxpu=1.2 model=1 kW=6.897997484512368 kvar=1.5073573946072503 Phases=1 yearly=res_kw_40_pu

New Load.load_p1ulv367_2 conn=wye bus1=p1ulv367.2 kV=0.12 Vminpu=0.8 Vmaxpu=1.2 model=1 kW=6.897997484512368 kvar=1.5073573946072503 Phases=1 yearly=res_kw_40_pu

New Load.load_p1ulv379_1 conn=wye bus1=p1ulv379.1 kV=0.12 Vminpu=0.8 Vmaxpu=1.2 model=1 kW=9.341738473663403 kvar=2.018548151169967 Phases=1 yearly=res_kw_504_pu

New Load.load_p1ulv379_2 conn=wye bus1=p1ulv379.2 kV=0.12 Vminpu=0.8 Vmaxpu=1.2 model=1 kW=9.341738473663403 kvar=2.018548151169967 Phases=1 yearly=res_kw_504_pu

New Load.load_p1ulv391_1 conn=wye bus1=p1ulv391.1 kV=0.12 Vminpu=0.8 Vmaxpu=1.2 model=1 kW=3.9108438598579216 kvar=0.8203267338659331 Phases=1 yearly=res_kw_1177_pu

New Load.load_p1ulv391_2 conn=wye bus1=p1ulv391.2 kV=0.12 Vminpu=0.8 Vmaxpu=1.2 model=1 kW=3.9108438598579216 kvar=0.8203267338659331 Phases=1 yearly=res_kw_1177_pu

New Load.load_p1ulv3645_1 conn=wye bus1=p1ulv3645.1 kV=0.12 Vminpu=0.8 Vmaxpu=1.2 model=1 kW=6.46954486905048 kvar=1.5165440515935265 Phases=1 yearly=res_kw_1067_pu

New Load.load_p1ulv3645_2 conn=wye bus1=p1ulv3645.2 kV=0.12 Vminpu=0.8 Vmaxpu=1.2 model=1 kW=6.46954486905048 kvar=1.5165440515935265 Phases=1 yearly=res_kw_1067_pu

New Load.load_p1ulv3646_1 conn=wye bus1=p1ulv3645.1 kV=0.12 Vminpu=0.8 Vmaxpu=1.2 model=1 kW=2.623267981089487 kvar=1.212519304398851 Phases=1 yearly=res_kw_452_pu

New Load.load_p1ulv3646_2 conn=wye bus1=p1ulv3645.2 kV=0.12 Vminpu=0.8 Vmaxpu=1.2 model=1 kW=2.623267981089487 kvar=1.212519304398851 Phases=1 yearly=res_kw_452_pu

New Load.load_p1ulv3647_1 conn=wye bus1=p1ulv3647.1 kV=0.12 Vminpu=0.8 Vmaxpu=1.2 model=1 kW=1.8618983584330409 kvar=0.7337589993741062 Phases=1 yearly=res_kw_141_pu

New Load.load_p1ulv3647_2 conn=wye bus1=p1ulv3647.2 kV=0.12 Vminpu=0.8 Vmaxpu=1.2 model=1 kW=1.8618983584330409 kvar=0.7337589993741062 Phases=1 yearly=res_kw_141_pu

New Load.load_p1ulv3648_1 conn=wye bus1=p1ulv3648.1 kV=0.12 Vminpu=0.8 Vmaxpu=1.2 model=1 kW=5.675346369339635 kvar=1.238985226090579 Phases=1 yearly=res_kw_1186_pu

New Load.load_p1ulv3648_2 conn=wye bus1=p1ulv3648.2 kV=0.12 Vminpu=0.8 Vmaxpu=1.2 model=1 kW=5.675346369339635 kvar=1.238985226090579 Phases=1 yearly=res_kw_1186_pu

New Load.load_p1ulv3649_1 conn=wye bus1=p1ulv3649.1 kV=0.12 Vminpu=0.8 Vmaxpu=1.2 model=1 kW=2.623267981089487 kvar=1.212519304398851 Phases=1 yearly=res_kw_452_pu

New Load.load_p1ulv3649_2 conn=wye bus1=p1ulv3649.2 kV=0.12 Vminpu=0.8 Vmaxpu=1.2 model=1 kW=2.623267981089487 kvar=1.212519304398851 Phases=1 yearly=res_kw_452_pu

New Load.load_p1ulv3650_1 conn=wye bus1=p1ulv3650.1 kV=0.12 Vminpu=0.8 Vmaxpu=1.2 model=1 kW=2.1376631749204993 kvar=0.6218033466021168 Phases=1 yearly=res_kw_93_pu

New Load.load_p1ulv3650_2 conn=wye bus1=p1ulv3650.2 kV=0.12 Vminpu=0.8 Vmaxpu=1.2 model=1 kW=2.1376631749204993 kvar=0.6218033466021168 Phases=1 yearly=res_kw_93_pu

New Load.load_p1ulv3651_1 conn=wye bus1=p1ulv3650.1 kV=0.12 Vminpu=0.8 Vmaxpu=1.2 model=1 kW=4.315153527476089 kvar=1.1500690460008876 Phases=1 yearly=res_kw_305_pu

New Load.load_p1ulv3651_2 conn=wye bus1=p1ulv3650.2 kV=0.12 Vminpu=0.8 Vmaxpu=1.2 model=1 kW=4.315153527476089 kvar=1.1500690460008876 Phases=1 yearly=res_kw_305_pu

New Load.load_p1ulv3652_1 conn=wye bus1=p1ulv3652.1 kV=0.12 Vminpu=0.8 Vmaxpu=1.2 model=1 kW=5.675346369339635 kvar=1.238985226090579 Phases=1 yearly=res_kw_1186_pu

New Load.load_p1ulv3652_2 conn=wye bus1=p1ulv3652.2 kV=0.12 Vminpu=0.8 Vmaxpu=1.2 model=1 kW=5.675346369339635 kvar=1.238985226090579 Phases=1 yearly=res_kw_1186_pu

New Load.load_p1ulv3653_1 conn=wye bus1=p1ulv3653.1 kV=0.12 Vminpu=0.8 Vmaxpu=1.2 model=1 kW=1.8618983584330409 kvar=0.7337589993741062 Phases=1 yearly=res_kw_141_pu

New Load.load_p1ulv3653_2 conn=wye bus1=p1ulv3653.2 kV=0.12 Vminpu=0.8 Vmaxpu=1.2 model=1 kW=1.8618983584330409 kvar=0.7337589993741062 Phases=1 yearly=res_kw_141_pu

New Load.load_p1ulv3654_1 conn=wye bus1=p1ulv3654.1 kV=0.12 Vminpu=0.8 Vmaxpu=1.2 model=1 kW=6.509851554537701 kvar=1.8030128852474767 Phases=1 yearly=res_kw_959_pu

New Load.load_p1ulv3654_2 conn=wye bus1=p1ulv3654.2 kV=0.12 Vminpu=0.8 Vmaxpu=1.2 model=1 kW=6.509851554537701 kvar=1.8030128852474767 Phases=1 yearly=res_kw_959_pu

New Load.load_p1ulv3655_1 conn=wye bus1=p1ulv3654.1 kV=0.12 Vminpu=0.8 Vmaxpu=1.2 model=1 kW=1.8618983584330409 kvar=0.7337589993741062 Phases=1 yearly=res_kw_141_pu

New Load.load_p1ulv3655_2 conn=wye bus1=p1ulv3654.2 kV=0.12 Vminpu=0.8 Vmaxpu=1.2 model=1 kW=1.8618983584330409 kvar=0.7337589993741062 Phases=1 yearly=res_kw_141_pu

New Load.load_p1ulv3656_1 conn=wye bus1=p1ulv3656.1 kV=0.12 Vminpu=0.8 Vmaxpu=1.2 model=1 kW=5.675346369339635 kvar=1.238985226090579 Phases=1 yearly=res_kw_1186_pu

New Load.load_p1ulv3656_2 conn=wye bus1=p1ulv3656.2 kV=0.12 Vminpu=0.8 Vmaxpu=1.2 model=1 kW=5.675346369339635 kvar=1.238985226090579 Phases=1 yearly=res_kw_1186_pu

New Load.load_p1ulv3657_1 conn=wye bus1=p1ulv3657.1 kV=0.12 Vminpu=0.8 Vmaxpu=1.2 model=1 kW=6.1441973618482 kvar=1.2604171969720956 Phases=1 yearly=res_kw_460_pu

New Load.load_p1ulv3657_2 conn=wye bus1=p1ulv3657.2 kV=0.12 Vminpu=0.8 Vmaxpu=1.2 model=1 kW=6.1441973618482 kvar=1.2604171969720956 Phases=1 yearly=res_kw_460_pu

New Load.load_p1ulv3658_1 conn=wye bus1=p1ulv3658.1 kV=0.12 Vminpu=0.8 Vmaxpu=1.2 model=1 kW=2.605021030189827 kvar=1.0007509371876184 Phases=1 yearly=res_kw_24_pu

New Load.load_p1ulv3658_2 conn=wye bus1=p1ulv3658.2 kV=0.12 Vminpu=0.8 Vmaxpu=1.2 model=1 kW=2.605021030189827 kvar=1.0007509371876184 Phases=1 yearly=res_kw_24_pu

New Load.load_p1ulv3659_1 conn=wye bus1=p1ulv3659.1 kV=0.12 Vminpu=0.8 Vmaxpu=1.2 model=1 kW=2.1376631749204993 kvar=0.6218033466021168 Phases=1 yearly=res_kw_93_pu

New Load.load_p1ulv3659_2 conn=wye bus1=p1ulv3659.2 kV=0.12 Vminpu=0.8 Vmaxpu=1.2 model=1 kW=2.1376631749204993 kvar=0.6218033466021168 Phases=1 yearly=res_kw_93_pu

New Load.load_p1ulv3660_1 conn=wye bus1=p1ulv3660.1 kV=0.12 Vminpu=0.8 Vmaxpu=1.2 model=1 kW=2.1376631749204993 kvar=0.6218033466021168 Phases=1 yearly=res_kw_93_pu

New Load.load_p1ulv3660_2 conn=wye bus1=p1ulv3660.2 kV=0.12 Vminpu=0.8 Vmaxpu=1.2 model=1 kW=2.1376631749204993 kvar=0.6218033466021168 Phases=1 yearly=res_kw_93_pu

New Load.load_p1ulv3661_1 conn=wye bus1=p1ulv3661.1 kV=0.12 Vminpu=0.8 Vmaxpu=1.2 model=1 kW=2.6241521841182514 kvar=0.8429304779950015 Phases=1 yearly=res_kw_33_pu

New Load.load_p1ulv3661_2 conn=wye bus1=p1ulv3661.2 kV=0.12 Vminpu=0.8 Vmaxpu=1.2 model=1 kW=2.6241521841182514 kvar=0.8429304779950015 Phases=1 yearly=res_kw_33_pu

New Load.load_p1ulv3662_1 conn=wye bus1=p1ulv3662.1 kV=0.12 Vminpu=0.8 Vmaxpu=1.2 model=1 kW=2.605021030189827 kvar=1.0007509371876184 Phases=1 yearly=res_kw_24_pu

New Load.load_p1ulv3662_2 conn=wye bus1=p1ulv3662.2 kV=0.12 Vminpu=0.8 Vmaxpu=1.2 model=1 kW=2.605021030189827 kvar=1.0007509371876184 Phases=1 yearly=res_kw_24_pu

New Load.load_p1ulv3663_1 conn=wye bus1=p1ulv3662.1 kV=0.12 Vminpu=0.8 Vmaxpu=1.2 model=1 kW=2.1376631749204993 kvar=0.6218033466021168 Phases=1 yearly=res_kw_93_pu

New Load.load_p1ulv3663_2 conn=wye bus1=p1ulv3662.2 kV=0.12 Vminpu=0.8 Vmaxpu=1.2 model=1 kW=2.1376631749204993 kvar=0.6218033466021168 Phases=1 yearly=res_kw_93_pu

New Load.load_p1ulv3664_1 conn=wye bus1=p1ulv3664.1 kV=0.12 Vminpu=0.8 Vmaxpu=1.2 model=1 kW=2.47170658682663 kvar=0.5373197382437959 Phases=1 yearly=res_kw_39_pu

New Load.load_p1ulv3664_2 conn=wye bus1=p1ulv3664.2 kV=0.12 Vminpu=0.8 Vmaxpu=1.2 model=1 kW=2.47170658682663 kvar=0.5373197382437959 Phases=1 yearly=res_kw_39_pu

New Load.load_p1ulv3665_1 conn=wye bus1=p1ulv3665.1 kV=0.12 Vminpu=0.8 Vmaxpu=1.2 model=1 kW=2.6241521841182514 kvar=0.8429304779950015 Phases=1 yearly=res_kw_33_pu

New Load.load_p1ulv3665_2 conn=wye bus1=p1ulv3665.2 kV=0.12 Vminpu=0.8 Vmaxpu=1.2 model=1 kW=2.6241521841182514 kvar=0.8429304779950015 Phases=1 yearly=res_kw_33_pu

New Load.load_p1ulv3666_1 conn=wye bus1=p1ulv3666.1 kV=0.12 Vminpu=0.8 Vmaxpu=1.2 model=1 kW=5.870755498032858 kvar=1.3962158378260503 Phases=1 yearly=res_kw_455_pu

New Load.load_p1ulv3666_2 conn=wye bus1=p1ulv3666.2 kV=0.12 Vminpu=0.8 Vmaxpu=1.2 model=1 kW=5.870755498032858 kvar=1.3962158378260503 Phases=1 yearly=res_kw_455_pu

New Load.load_p1ulv3667_1 conn=wye bus1=p1ulv3666.1 kV=0.12 Vminpu=0.8 Vmaxpu=1.2 model=1 kW=1.8618983584330409 kvar=0.7337589993741062 Phases=1 yearly=res_kw_141_pu

New Load.load_p1ulv3667_2 conn=wye bus1=p1ulv3666.2 kV=0.12 Vminpu=0.8 Vmaxpu=1.2 model=1 kW=1.8618983584330409 kvar=0.7337589993741062 Phases=1 yearly=res_kw_141_pu

New Load.load_p1ulv3668_1 conn=wye bus1=p1ulv3668.1 kV=0.12 Vminpu=0.8 Vmaxpu=1.2 model=1 kW=2.1894046505184286 kvar=0.7281040757251952 Phases=1 yearly=res_kw_1042_pu

New Load.load_p1ulv3668_2 conn=wye bus1=p1ulv3668.2 kV=0.12 Vminpu=0.8 Vmaxpu=1.2 model=1 kW=2.1894046505184286 kvar=0.7281040757251952 Phases=1 yearly=res_kw_1042_pu

New Load.load_p1ulv3669_1 conn=wye bus1=p1ulv3669.1 kV=0.12 Vminpu=0.8 Vmaxpu=1.2 model=1 kW=2.1376631749204993 kvar=0.6218033466021168 Phases=1 yearly=res_kw_93_pu

New Load.load_p1ulv3669_2 conn=wye bus1=p1ulv3669.2 kV=0.12 Vminpu=0.8 Vmaxpu=1.2 model=1 kW=2.1376631749204993 kvar=0.6218033466021168 Phases=1 yearly=res_kw_93_pu

New Load.load_p1ulv3670_1 conn=wye bus1=p1ulv3670.1 kV=0.12 Vminpu=0.8 Vmaxpu=1.2 model=1 kW=4.788649591238137 kvar=1.023651375705972 Phases=1 yearly=res_kw_512_pu

New Load.load_p1ulv3670_2 conn=wye bus1=p1ulv3670.2 kV=0.12 Vminpu=0.8 Vmaxpu=1.2 model=1 kW=4.788649591238137 kvar=1.023651375705972 Phases=1 yearly=res_kw_512_pu

New Load.load_p1ulv3671_1 conn=wye bus1=p1ulv3671.1 kV=0.12 Vminpu=0.8 Vmaxpu=1.2 model=1 kW=1.6746299650392789 kvar=0.594727774010976 Phases=1 yearly=res_kw_1276_pu

New Load.load_p1ulv3671_2 conn=wye bus1=p1ulv3671.2 kV=0.12 Vminpu=0.8 Vmaxpu=1.2 model=1 kW=1.6746299650392789 kvar=0.594727774010976 Phases=1 yearly=res_kw_1276_pu

New Load.load_p1ulv3672_1 conn=wye bus1=p1ulv3672.1 kV=0.12 Vminpu=0.8 Vmaxpu=1.2 model=1 kW=3.0502193323758338 kvar=0.7068547525403183 Phases=1 yearly=res_kw_407_pu

New Load.load_p1ulv3672_2 conn=wye bus1=p1ulv3672.2 kV=0.12 Vminpu=0.8 Vmaxpu=1.2 model=1 kW=3.0502193323758338 kvar=0.7068547525403183 Phases=1 yearly=res_kw_407_pu

New Load.load_p1ulv3673_1 conn=wye bus1=p1ulv3672.1 kV=0.12 Vminpu=0.8 Vmaxpu=1.2 model=1 kW=1.6746299650392789 kvar=0.594727774010976 Phases=1 yearly=res_kw_1276_pu

New Load.load_p1ulv3673_2 conn=wye bus1=p1ulv3672.2 kV=0.12 Vminpu=0.8 Vmaxpu=1.2 model=1 kW=1.6746299650392789 kvar=0.594727774010976 Phases=1 yearly=res_kw_1276_pu

New Load.load_p1ulv3674_1 conn=wye bus1=p1ulv3674.1 kV=0.12 Vminpu=0.8 Vmaxpu=1.2 model=1 kW=2.623267981089487 kvar=1.212519304398851 Phases=1 yearly=res_kw_452_pu

New Load.load_p1ulv3674_2 conn=wye bus1=p1ulv3674.2 kV=0.12 Vminpu=0.8 Vmaxpu=1.2 model=1 kW=2.623267981089487 kvar=1.212519304398851 Phases=1 yearly=res_kw_452_pu

New Load.load_p1ulv3675_1 conn=wye bus1=p1ulv3675.1 kV=0.12 Vminpu=0.8 Vmaxpu=1.2 model=1 kW=2.1376631749204993 kvar=0.6218033466021168 Phases=1 yearly=res_kw_93_pu

New Load.load_p1ulv3675_2 conn=wye bus1=p1ulv3675.2 kV=0.12 Vminpu=0.8 Vmaxpu=1.2 model=1 kW=2.1376631749204993 kvar=0.6218033466021168 Phases=1 yearly=res_kw_93_pu

New Load.load_p1ulv3676_1 conn=wye bus1=p1ulv3676.1 kV=0.12 Vminpu=0.8 Vmaxpu=1.2 model=1 kW=2.4716999256380876 kvar=0.7079643646342628 Phases=1 yearly=com_kw_14407_pu

New Load.load_p1ulv3676_2 conn=wye bus1=p1ulv3676.2 kV=0.12 Vminpu=0.8 Vmaxpu=1.2 model=1 kW=2.4716999256380876 kvar=0.7079643646342628 Phases=1 yearly=com_kw_14407_pu

New Load.load_p1ulv3677_1 conn=wye bus1=p1ulv3677.1 kV=0.12 Vminpu=0.8 Vmaxpu=1.2 model=1 kW=4.642179748908938 kvar=0.176462268654847 Phases=1 yearly=com_kw_15157_pu

New Load.load_p1ulv3677_2 conn=wye bus1=p1ulv3677.2 kV=0.12 Vminpu=0.8 Vmaxpu=1.2 model=1 kW=4.642179748908938 kvar=0.176462268654847 Phases=1 yearly=com_kw_15157_pu

New Load.load_p1ulv3678_1 conn=wye bus1=p1ulv3678.1 kV=0.12 Vminpu=0.8 Vmaxpu=1.2 model=1 kW=2.3846609446068823 kvar=0.7423017332736356 Phases=1 yearly=com_kw_14117_pu

New Load.load_p1ulv3678_2 conn=wye bus1=p1ulv3678.2 kV=0.12 Vminpu=0.8 Vmaxpu=1.2 model=1 kW=2.3846609446068823 kvar=0.7423017332736356 Phases=1 yearly=com_kw_14117_pu

New Load.load_p1ulv3679_1 conn=wye bus1=p1ulv3678.1 kV=0.12 Vminpu=0.8 Vmaxpu=1.2 model=1 kW=4.479056656710896 kvar=0.2017917351382802 Phases=1 yearly=com_kw_14056_pu

New Load.load_p1ulv3679_2 conn=wye bus1=p1ulv3678.2 kV=0.12 Vminpu=0.8 Vmaxpu=1.2 model=1 kW=4.479056656710896 kvar=0.2017917351382802 Phases=1 yearly=com_kw_14056_pu

New Load.load_p1ulv3680_1 conn=wye bus1=p1ulv3680.1 kV=0.12 Vminpu=0.8 Vmaxpu=1.2 model=1 kW=1.8914832317680952 kvar=0.4701288429802831 Phases=1 yearly=com_kw_13018_pu

New Load.load_p1ulv3680_2 conn=wye bus1=p1ulv3680.2 kV=0.12 Vminpu=0.8 Vmaxpu=1.2 model=1 kW=1.8914832317680952 kvar=0.4701288429802831 Phases=1 yearly=com_kw_13018_pu

New Load.load_p1ulv3681_1 conn=wye bus1=p1ulv3681.1 kV=0.12 Vminpu=0.8 Vmaxpu=1.2 model=1 kW=1.8801200674575587 kvar=0.53962653273889 Phases=1 yearly=com_kw_13578_pu

New Load.load_p1ulv3681_2 conn=wye bus1=p1ulv3681.2 kV=0.12 Vminpu=0.8 Vmaxpu=1.2 model=1 kW=1.8801200674575587 kvar=0.53962653273889 Phases=1 yearly=com_kw_13578_pu

New Load.load_p1ulv3682_1 conn=wye bus1=p1ulv3682.1 kV=0.12 Vminpu=0.8 Vmaxpu=1.2 model=1 kW=13.251431311430247 kvar=0.1493407165487586 Phases=1 yearly=com_kw_14976_pu

New Load.load_p1ulv3682_2 conn=wye bus1=p1ulv3682.2 kV=0.12 Vminpu=0.8 Vmaxpu=1.2 model=1 kW=13.251431311430247 kvar=0.1493407165487586 Phases=1 yearly=com_kw_14976_pu

New Load.load_p1ulv3683_1 conn=wye bus1=p1ulv3682.1 kV=0.12 Vminpu=0.8 Vmaxpu=1.2 model=1 kW=2.465496051676302 kvar=0.5881407747231531 Phases=1 yearly=com_kw_13121_pu

New Load.load_p1ulv3683_2 conn=wye bus1=p1ulv3682.2 kV=0.12 Vminpu=0.8 Vmaxpu=1.2 model=1 kW=2.465496051676302 kvar=0.5881407747231531 Phases=1 yearly=com_kw_13121_pu

New Load.load_p1ulv3684_1 conn=wye bus1=p1ulv3684.1 kV=0.12 Vminpu=0.8 Vmaxpu=1.2 model=1 kW=2.1271986187473146 kvar=0.5751959086648131 Phases=1 yearly=com_kw_14402_pu

New Load.load_p1ulv3684_2 conn=wye bus1=p1ulv3684.2 kV=0.12 Vminpu=0.8 Vmaxpu=1.2 model=1 kW=2.1271986187473146 kvar=0.5751959086648131 Phases=1 yearly=com_kw_14402_pu

New Load.load_p1ulv3685_1 conn=wye bus1=p1ulv3684.1 kV=0.12 Vminpu=0.8 Vmaxpu=1.2 model=1 kW=5.175662860651579 kvar=0.30737530232154564 Phases=1 yearly=com_kw_13393_pu

New Load.load_p1ulv3685_2 conn=wye bus1=p1ulv3684.2 kV=0.12 Vminpu=0.8 Vmaxpu=1.2 model=1 kW=5.175662860651579 kvar=0.30737530232154564 Phases=1 yearly=com_kw_13393_pu

New Load.load_p1ulv3686_1 conn=wye bus1=p1ulv3686.1 kV=0.12 Vminpu=0.8 Vmaxpu=1.2 model=1 kW=1.8914832317680952 kvar=0.4701288429802831 Phases=1 yearly=com_kw_13018_pu

New Load.load_p1ulv3686_2 conn=wye bus1=p1ulv3686.2 kV=0.12 Vminpu=0.8 Vmaxpu=1.2 model=1 kW=1.8914832317680952 kvar=0.4701288429802831 Phases=1 yearly=com_kw_13018_pu

New Load.load_p1ulv3687_1 conn=wye bus1=p1ulv3686.1 kV=0.12 Vminpu=0.8 Vmaxpu=1.2 model=1 kW=2.067648239246198 kvar=0.5822879156961851 Phases=1 yearly=com_kw_14772_pu

New Load.load_p1ulv3687_2 conn=wye bus1=p1ulv3686.2 kV=0.12 Vminpu=0.8 Vmaxpu=1.2 model=1 kW=2.067648239246198 kvar=0.5822879156961851 Phases=1 yearly=com_kw_14772_pu

New Load.load_p1ulv3688_1 conn=wye bus1=p1ulv3688.1 kV=0.12 Vminpu=0.8 Vmaxpu=1.2 model=1 kW=1.8775078991445364 kvar=0.511706884096551 Phases=1 yearly=com_kw_14932_pu

New Load.load_p1ulv3688_2 conn=wye bus1=p1ulv3688.2 kV=0.12 Vminpu=0.8 Vmaxpu=1.2 model=1 kW=1.8775078991445364 kvar=0.511706884096551 Phases=1 yearly=com_kw_14932_pu

New Load.load_p1ulv3689_1 conn=wye bus1=p1ulv3689.1 kV=0.12 Vminpu=0.8 Vmaxpu=1.2 model=1 kW=1.8914832317680952 kvar=0.4701288429802831 Phases=1 yearly=com_kw_13018_pu

New Load.load_p1ulv3689_2 conn=wye bus1=p1ulv3689.2 kV=0.12 Vminpu=0.8 Vmaxpu=1.2 model=1 kW=1.8914832317680952 kvar=0.4701288429802831 Phases=1 yearly=com_kw_13018_pu

New Load.load_p1ulv3690_1 conn=wye bus1=p1ulv3690.1 kV=0.12 Vminpu=0.8 Vmaxpu=1.2 model=1 kW=5.214317910575264 kvar=0.26498403593368286 Phases=1 yearly=com_kw_13828_pu

New Load.load_p1ulv3690_2 conn=wye bus1=p1ulv3690.2 kV=0.12 Vminpu=0.8 Vmaxpu=1.2 model=1 kW=5.214317910575264 kvar=0.26498403593368286 Phases=1 yearly=com_kw_13828_pu

New Load.load_p1ulv3691_1 conn=wye bus1=p1ulv3691.1 kV=0.12 Vminpu=0.8 Vmaxpu=1.2 model=1 kW=2.27937269045903 kvar=0.6423134931189778 Phases=1 yearly=com_kw_15224_pu

New Load.load_p1ulv3691_2 conn=wye bus1=p1ulv3691.2 kV=0.12 Vminpu=0.8 Vmaxpu=1.2 model=1 kW=2.27937269045903 kvar=0.6423134931189778 Phases=1 yearly=com_kw_15224_pu

New Load.load_p1ulv3692_1 conn=wye bus1=p1ulv3692.1 kV=0.12 Vminpu=0.8 Vmaxpu=1.2 model=1 kW=6.847378896370207 kvar=0.2857422414791666 Phases=1 yearly=com_kw_14382_pu

New Load.load_p1ulv3692_2 conn=wye bus1=p1ulv3692.2 kV=0.12 Vminpu=0.8 Vmaxpu=1.2 model=1 kW=6.847378896370207 kvar=0.2857422414791666 Phases=1 yearly=com_kw_14382_pu

New Load.load_p1ulv3693_1 conn=wye bus1=p1ulv3693.1 kV=0.12 Vminpu=0.8 Vmaxpu=1.2 model=1 kW=2.1271986187473146 kvar=0.5751959086648131 Phases=1 yearly=com_kw_14402_pu

New Load.load_p1ulv3693_2 conn=wye bus1=p1ulv3693.2 kV=0.12 Vminpu=0.8 Vmaxpu=1.2 model=1 kW=2.1271986187473146 kvar=0.5751959086648131 Phases=1 yearly=com_kw_14402_pu

New Load.load_p1ulv3694_1 conn=wye bus1=p1ulv3694.1 kV=0.12 Vminpu=0.8 Vmaxpu=1.2 model=1 kW=1.8914832317680952 kvar=0.4701288429802831 Phases=1 yearly=com_kw_13018_pu

New Load.load_p1ulv3694_2 conn=wye bus1=p1ulv3694.2 kV=0.12 Vminpu=0.8 Vmaxpu=1.2 model=1 kW=1.8914832317680952 kvar=0.4701288429802831 Phases=1 yearly=com_kw_13018_pu

New Load.load_p1ulv3695_1 conn=wye bus1=p1ulv3695.1 kV=0.12 Vminpu=0.8 Vmaxpu=1.2 model=1 kW=4.589231411483642 kvar=0.1871715682789368 Phases=1 yearly=com_kw_13515_pu

New Load.load_p1ulv3695_2 conn=wye bus1=p1ulv3695.2 kV=0.12 Vminpu=0.8 Vmaxpu=1.2 model=1 kW=4.589231411483642 kvar=0.1871715682789368 Phases=1 yearly=com_kw_13515_pu

New Load.load_p1ulv3696_1 conn=wye bus1=p1ulv3695.1 kV=0.12 Vminpu=0.8 Vmaxpu=1.2 model=1 kW=2.242446440461792 kvar=0.599196925582727 Phases=1 yearly=com_kw_14904_pu

New Load.load_p1ulv3696_2 conn=wye bus1=p1ulv3695.2 kV=0.12 Vminpu=0.8 Vmaxpu=1.2 model=1 kW=2.242446440461792 kvar=0.599196925582727 Phases=1 yearly=com_kw_14904_pu

New Load.load_p1ulv3697_1 conn=wye bus1=p1ulv3697.1 kV=0.12 Vminpu=0.8 Vmaxpu=1.2 model=1 kW=1.8914832317680952 kvar=0.4701288429802831 Phases=1 yearly=com_kw_13018_pu

New Load.load_p1ulv3697_2 conn=wye bus1=p1ulv3697.2 kV=0.12 Vminpu=0.8 Vmaxpu=1.2 model=1 kW=1.8914832317680952 kvar=0.4701288429802831 Phases=1 yearly=com_kw_13018_pu

New Load.load_p1ulv3698_1 conn=wye bus1=p1ulv3698.1 kV=0.12 Vminpu=0.8 Vmaxpu=1.2 model=1 kW=7.93049382572733 kvar=0.16129015048142953 Phases=1 yearly=com_kw_14549_pu

New Load.load_p1ulv3698_2 conn=wye bus1=p1ulv3698.2 kV=0.12 Vminpu=0.8 Vmaxpu=1.2 model=1 kW=7.93049382572733 kvar=0.16129015048142953 Phases=1 yearly=com_kw_14549_pu

New Load.load_p1ulv3699_1 conn=wye bus1=p1ulv3699.1 kV=0.12 Vminpu=0.8 Vmaxpu=1.2 model=1 kW=2.134373343667251 kvar=0.5986590434975299 Phases=1 yearly=com_kw_14612_pu

New Load.load_p1ulv3699_2 conn=wye bus1=p1ulv3699.2 kV=0.12 Vminpu=0.8 Vmaxpu=1.2 model=1 kW=2.134373343667251 kvar=0.5986590434975299 Phases=1 yearly=com_kw_14612_pu

New Load.load_p1ulv3700_1 conn=wye bus1=p1ulv3700.1 kV=0.12 Vminpu=0.8 Vmaxpu=1.2 model=1 kW=6.215760550825127 kvar=0.1559871213980079 Phases=1 yearly=com_kw_13807_pu

New Load.load_p1ulv3700_2 conn=wye bus1=p1ulv3700.2 kV=0.12 Vminpu=0.8 Vmaxpu=1.2 model=1 kW=6.215760550825127 kvar=0.1559871213980079 Phases=1 yearly=com_kw_13807_pu

New Load.load_p1ulv3701_1 conn=wye bus1=p1ulv3701.1 kV=0.12 Vminpu=0.8 Vmaxpu=1.2 model=1 kW=2.1271986187473146 kvar=0.5751959086648131 Phases=1 yearly=com_kw_14402_pu

New Load.load_p1ulv3701_2 conn=wye bus1=p1ulv3701.2 kV=0.12 Vminpu=0.8 Vmaxpu=1.2 model=1 kW=2.1271986187473146 kvar=0.5751959086648131 Phases=1 yearly=com_kw_14402_pu

New Load.load_p1ulv3702_1 conn=wye bus1=p1ulv3702.1 kV=0.12 Vminpu=0.8 Vmaxpu=1.2 model=1 kW=2.0313586656693827 kvar=0.5942635047770736 Phases=1 yearly=com_kw_13386_pu

New Load.load_p1ulv3702_2 conn=wye bus1=p1ulv3702.2 kV=0.12 Vminpu=0.8 Vmaxpu=1.2 model=1 kW=2.0313586656693827 kvar=0.5942635047770736 Phases=1 yearly=com_kw_13386_pu

New Load.load_p1ulv3732_1 conn=wye bus1=p1ulv3732.1 kV=0.12 Vminpu=0.8 Vmaxpu=1.2 model=1 kW=1.4493292356011218 kvar=1.1002454873547782 Phases=1 yearly=res_kw_62_pu

New Load.load_p1ulv3732_2 conn=wye bus1=p1ulv3732.2 kV=0.12 Vminpu=0.8 Vmaxpu=1.2 model=1 kW=1.4493292356011218 kvar=1.1002454873547782 Phases=1 yearly=res_kw_62_pu

New Load.load_p1ulv3733_1 conn=wye bus1=p1ulv3732.1 kV=0.12 Vminpu=0.8 Vmaxpu=1.2 model=1 kW=0.17638855280953816 kvar=0.11785766630597205 Phases=1 yearly=res_kw_1229_pu

New Load.load_p1ulv3733_2 conn=wye bus1=p1ulv3732.2 kV=0.12 Vminpu=0.8 Vmaxpu=1.2 model=1 kW=0.17638855280953816 kvar=0.11785766630597205 Phases=1 yearly=res_kw_1229_pu

New Load.load_p1ulv4902_1 conn=wye bus1=p1ulv4902.1 kV=0.12 Vminpu=0.8 Vmaxpu=1.2 model=1 kW=5.6593015111322105 kvar=1.2761251920573724 Phases=1 yearly=res_kw_324_pu

New Load.load_p1ulv4902_2 conn=wye bus1=p1ulv4902.2 kV=0.12 Vminpu=0.8 Vmaxpu=1.2 model=1 kW=5.6593015111322105 kvar=1.2761251920573724 Phases=1 yearly=res_kw_324_pu

New Load.load_p1ulv4904_1 conn=wye bus1=p1ulv4904.1 kV=0.12 Vminpu=0.8 Vmaxpu=1.2 model=1 kW=3.8748715750127736 kvar=1.5614372175332516 Phases=1 yearly=res_kw_517_pu

New Load.load_p1ulv4904_2 conn=wye bus1=p1ulv4904.2 kV=0.12 Vminpu=0.8 Vmaxpu=1.2 model=1 kW=3.8748715750127736 kvar=1.5614372175332516 Phases=1 yearly=res_kw_517_pu

New Load.load_p1ulv4909_1 conn=wye bus1=p1ulv4909.1 kV=0.12 Vminpu=0.8 Vmaxpu=1.2 model=1 kW=10.375628907780863 kvar=4.616486224330442 Phases=1 yearly=res_kw_1267_pu

New Load.load_p1ulv4909_2 conn=wye bus1=p1ulv4909.2 kV=0.12 Vminpu=0.8 Vmaxpu=1.2 model=1 kW=10.375628907780863 kvar=4.616486224330442 Phases=1 yearly=res_kw_1267_pu

New Load.load_p1ulv6574_1 conn=wye bus1=p1ulv6574.1 kV=0.12 Vminpu=0.8 Vmaxpu=1.2 model=1 kW=7.04256695844029 kvar=1.659740351203588 Phases=1 yearly=res_kw_707_pu

New Load.load_p1ulv6574_2 conn=wye bus1=p1ulv6574.2 kV=0.12 Vminpu=0.8 Vmaxpu=1.2 model=1 kW=7.04256695844029 kvar=1.659740351203588 Phases=1 yearly=res_kw_707_pu

New Load.load_p1ulv6585_1 conn=wye bus1=p1ulv6585.1 kV=0.12 Vminpu=0.8 Vmaxpu=1.2 model=1 kW=11.457721527492426 kvar=1.3801854390555242 Phases=1 yearly=res_kw_861_pu

New Load.load_p1ulv6585_2 conn=wye bus1=p1ulv6585.2 kV=0.12 Vminpu=0.8 Vmaxpu=1.2 model=1 kW=11.457721527492426 kvar=1.3801854390555242 Phases=1 yearly=res_kw_861_pu

New Load.load_p1ulv6591_1 conn=wye bus1=p1ulv6591.1 kV=0.12 Vminpu=0.8 Vmaxpu=1.2 model=1 kW=4.78815623948431 kvar=1.2110296754961107 Phases=1 yearly=res_kw_842_pu

New Load.load_p1ulv6591_2 conn=wye bus1=p1ulv6591.2 kV=0.12 Vminpu=0.8 Vmaxpu=1.2 model=1 kW=4.78815623948431 kvar=1.2110296754961107 Phases=1 yearly=res_kw_842_pu

New Load.load_p1ulv6596_1 conn=wye bus1=p1ulv6596.1 kV=0.12 Vminpu=0.8 Vmaxpu=1.2 model=1 kW=3.8748715750127736 kvar=1.5614372175332516 Phases=1 yearly=res_kw_517_pu

New Load.load_p1ulv6596_2 conn=wye bus1=p1ulv6596.2 kV=0.12 Vminpu=0.8 Vmaxpu=1.2 model=1 kW=3.8748715750127736 kvar=1.5614372175332516 Phases=1 yearly=res_kw_517_pu

New Load.load_p1ulv8085_1 conn=wye bus1=p1ulv8085.1 kV=0.12 Vminpu=0.8 Vmaxpu=1.2 model=1 kW=4.737995147424034 kvar=0.27793880247771546 Phases=1 yearly=com_kw_14277_pu

New Load.load_p1ulv8085_2 conn=wye bus1=p1ulv8085.2 kV=0.12 Vminpu=0.8 Vmaxpu=1.2 model=1 kW=4.737995147424034 kvar=0.27793880247771546 Phases=1 yearly=com_kw_14277_pu

New Load.load_p1ulv8086_1 conn=wye bus1=p1ulv8085.1 kV=0.12 Vminpu=0.8 Vmaxpu=1.2 model=1 kW=1.8914832317680952 kvar=0.4701288429802831 Phases=1 yearly=com_kw_13018_pu

New Load.load_p1ulv8086_2 conn=wye bus1=p1ulv8085.2 kV=0.12 Vminpu=0.8 Vmaxpu=1.2 model=1 kW=1.8914832317680952 kvar=0.4701288429802831 Phases=1 yearly=com_kw_13018_pu

New Load.load_p1ulv8087_1 conn=wye bus1=p1ulv8087.1 kV=0.12 Vminpu=0.8 Vmaxpu=1.2 model=1 kW=1.8801200674575587 kvar=0.53962653273889 Phases=1 yearly=com_kw_13578_pu

New Load.load_p1ulv8087_2 conn=wye bus1=p1ulv8087.2 kV=0.12 Vminpu=0.8 Vmaxpu=1.2 model=1 kW=1.8801200674575587 kvar=0.53962653273889 Phases=1 yearly=com_kw_13578_pu

New Load.load_p1ulv8088_1 conn=wye bus1=p1ulv8088.1 kV=0.12 Vminpu=0.8 Vmaxpu=1.2 model=1 kW=5.175662860651579 kvar=0.30737530232154564 Phases=1 yearly=com_kw_13393_pu

New Load.load_p1ulv8088_2 conn=wye bus1=p1ulv8088.2 kV=0.12 Vminpu=0.8 Vmaxpu=1.2 model=1 kW=5.175662860651579 kvar=0.30737530232154564 Phases=1 yearly=com_kw_13393_pu

New Load.load_p1ulv8089_1 conn=wye bus1=p1ulv8088.1 kV=0.12 Vminpu=0.8 Vmaxpu=1.2 model=1 kW=1.8914832317680952 kvar=0.4701288429802831 Phases=1 yearly=com_kw_13018_pu

New Load.load_p1ulv8089_2 conn=wye bus1=p1ulv8088.2 kV=0.12 Vminpu=0.8 Vmaxpu=1.2 model=1 kW=1.8914832317680952 kvar=0.4701288429802831 Phases=1 yearly=com_kw_13018_pu

New Load.load_p1ulv8090_1 conn=wye bus1=p1ulv8090.1 kV=0.12 Vminpu=0.8 Vmaxpu=1.2 model=1 kW=4.857616015471129 kvar=0.2397306111492685 Phases=1 yearly=com_kw_14883_pu

New Load.load_p1ulv8090_2 conn=wye bus1=p1ulv8090.2 kV=0.12 Vminpu=0.8 Vmaxpu=1.2 model=1 kW=4.857616015471129 kvar=0.2397306111492685 Phases=1 yearly=com_kw_14883_pu

New Load.load_p1ulv8091_1 conn=wye bus1=p1ulv8090.1 kV=0.12 Vminpu=0.8 Vmaxpu=1.2 model=1 kW=2.0313586656693827 kvar=0.5942635047770736 Phases=1 yearly=com_kw_13386_pu

New Load.load_p1ulv8091_2 conn=wye bus1=p1ulv8090.2 kV=0.12 Vminpu=0.8 Vmaxpu=1.2 model=1 kW=2.0313586656693827 kvar=0.5942635047770736 Phases=1 yearly=com_kw_13386_pu

New Load.load_p1ulv8092_1 conn=wye bus1=p1ulv8092.1 kV=0.12 Vminpu=0.8 Vmaxpu=1.2 model=1 kW=1.9038750316582675 kvar=0.5392511078342896 Phases=1 yearly=com_kw_13025_pu

New Load.load_p1ulv8092_2 conn=wye bus1=p1ulv8092.2 kV=0.12 Vminpu=0.8 Vmaxpu=1.2 model=1 kW=1.9038750316582675 kvar=0.5392511078342896 Phases=1 yearly=com_kw_13025_pu

New Load.load_p1ulv8093_1 conn=wye bus1=p1ulv8092.1 kV=0.12 Vminpu=0.8 Vmaxpu=1.2 model=1 kW=2.0313586656693827 kvar=0.5942635047770736 Phases=1 yearly=com_kw_13386_pu

New Load.load_p1ulv8093_2 conn=wye bus1=p1ulv8092.2 kV=0.12 Vminpu=0.8 Vmaxpu=1.2 model=1 kW=2.0313586656693827 kvar=0.5942635047770736 Phases=1 yearly=com_kw_13386_pu

New Load.load_p1ulv8094_1 conn=wye bus1=p1ulv8094.1 kV=0.12 Vminpu=0.8 Vmaxpu=1.2 model=1 kW=3.2230723959373018 kvar=0.13338129174872024 Phases=1 yearly=com_kw_14257_pu

New Load.load_p1ulv8094_2 conn=wye bus1=p1ulv8094.2 kV=0.12 Vminpu=0.8 Vmaxpu=1.2 model=1 kW=3.2230723959373018 kvar=0.13338129174872024 Phases=1 yearly=com_kw_14257_pu

New Load.load_p1ulv8095_1 conn=wye bus1=p1ulv8094.1 kV=0.12 Vminpu=0.8 Vmaxpu=1.2 model=1 kW=4.642179748908938 kvar=0.176462268654847 Phases=1 yearly=com_kw_15157_pu

New Load.load_p1ulv8095_2 conn=wye bus1=p1ulv8094.2 kV=0.12 Vminpu=0.8 Vmaxpu=1.2 model=1 kW=4.642179748908938 kvar=0.176462268654847 Phases=1 yearly=com_kw_15157_pu

New Load.load_p1ulv8096_1 conn=wye bus1=p1ulv8096.1 kV=0.12 Vminpu=0.8 Vmaxpu=1.2 model=1 kW=2.4716999256380876 kvar=0.7079643646342628 Phases=1 yearly=com_kw_14407_pu

New Load.load_p1ulv8096_2 conn=wye bus1=p1ulv8096.2 kV=0.12 Vminpu=0.8 Vmaxpu=1.2 model=1 kW=2.4716999256380876 kvar=0.7079643646342628 Phases=1 yearly=com_kw_14407_pu

New Load.load_p1ulv8097_1 conn=wye bus1=p1ulv8096.1 kV=0.12 Vminpu=0.8 Vmaxpu=1.2 model=1 kW=4.642179748908938 kvar=0.176462268654847 Phases=1 yearly=com_kw_15157_pu

New Load.load_p1ulv8097_2 conn=wye bus1=p1ulv8096.2 kV=0.12 Vminpu=0.8 Vmaxpu=1.2 model=1 kW=4.642179748908938 kvar=0.176462268654847 Phases=1 yearly=com_kw_15157_pu

New Load.load_p1ulv8098_1 conn=wye bus1=p1ulv8098.1 kV=0.12 Vminpu=0.8 Vmaxpu=1.2 model=1 kW=5.175662860651579 kvar=0.30737530232154564 Phases=1 yearly=com_kw_13393_pu
