New Load.load_p1ulv1851_1 conn=wye bus1=p1ulv1851.1 kV=0.12 Vminpu=0.8 Vmaxpu=1.2 model=1 kW=2.658027342573646 kvar=0.9113625924854422 Phases=1 yearly=res_kw_1105_pu

New Load.load_p1ulv1851_2 conn=wye bus1=p1ulv1851.2 kV=0.12 Vminpu=0.8 Vmaxpu=1.2 model=1 kW=2.658027342573646 kvar=0.9113625924854422 Phases=1 yearly=res_kw_1105_pu

New Load.load_p1ulv1854_1 conn=wye bus1=p1ulv1854.1 kV=0.12 Vminpu=0.8 Vmaxpu=1.2 model=1 kW=8.020736002000627 kvar=0.8077597125403054 Phases=1 yearly=res_kw_411_pu

New Load.load_p1ulv1854_2 conn=wye bus1=p1ulv1854.2 kV=0.12 Vminpu=0.8 Vmaxpu=1.2 model=1 kW=8.020736002000627 kvar=0.8077597125403054 Phases=1 yearly=res_kw_411_pu

New Load.load_p1ulv1856_1 conn=wye bus1=p1ulv1856.1 kV=0.12 Vminpu=0.8 Vmaxpu=1.2 model=1 kW=0.8155215330625105 kvar=0.30217793028689777 Phases=1 yearly=res_kw_1270_pu

New Load.load_p1ulv1856_2 conn=wye bus1=p1ulv1856.2 kV=0.12 Vminpu=0.8 Vmaxpu=1.2 model=1 kW=0.8155215330625105 kvar=0.30217793028689777 Phases=1 yearly=res_kw_1270_pu

New Load.load_p1ulv1874_1 conn=wye bus1=p1ulv1874.1 kV=0.12 Vminpu=0.8 Vmaxpu=1.2 model=1 kW=5.466651771327982 kvar=1.2745975671486984 Phases=1 yearly=res_kw_933_pu

New Load.load_p1ulv1874_2 conn=wye bus1=p1ulv1874.2 kV=0.12 Vminpu=0.8 Vmaxpu=1.2 model=1 kW=5.466651771327982 kvar=1.2745975671486984 Phases=1 yearly=res_kw_933_pu

New Load.load_p1ulv1875_1 conn=wye bus1=p1ulv1875.1 kV=0.12 Vminpu=0.8 Vmaxpu=1.2 model=1 kW=4.78815623948431 kvar=1.2110296754961107 Phases=1 yearly=res_kw_842_pu

New Load.load_p1ulv1875_2 conn=wye bus1=p1ulv1875.2 kV=0.12 Vminpu=0.8 Vmaxpu=1.2 model=1 kW=4.78815623948431 kvar=1.2110296754961107 Phases=1 yearly=res_kw_842_pu

New Load.load_p1ulv6293_1 conn=wye bus1=p1ulv6293.1 kV=0.12 Vminpu=0.8 Vmaxpu=1.2 model=1 kW=5.4313165050257775 kvar=1.3233518473888222 Phases=1 yearly=res_kw_355_pu

New Load.load_p1ulv6293_2 conn=wye bus1=p1ulv6293.2 kV=0.12 Vminpu=0.8 Vmaxpu=1.2 model=1 kW=5.4313165050257775 kvar=1.3233518473888222 Phases=1 yearly=res_kw_355_pu

New Load.load_p1ulv6294_1 conn=wye bus1=p1ulv6294.1 kV=0.12 Vminpu=0.8 Vmaxpu=1.2 model=1 kW=6.727252203449795 kvar=1.9067277455995406 Phases=1 yearly=res_kw_822_pu

New Load.load_p1ulv6294_2 conn=wye bus1=p1ulv6294.2 kV=0.12 Vminpu=0.8 Vmaxpu=1.2 model=1 kW=6.727252203449795 kvar=1.9067277455995406 Phases=1 yearly=res_kw_822_pu

New Load.load_p1ulv6295_1 conn=wye bus1=p1ulv6295.1 kV=0.12 Vminpu=0.8 Vmaxpu=1.2 model=1 kW=5.436729579526792 kvar=1.2488470964899614 Phases=1 yearly=res_kw_454_pu

New Load.load_p1ulv6295_2 conn=wye bus1=p1ulv6295.2 kV=0.12 Vminpu=0.8 Vmaxpu=1.2 model=1 kW=5.436729579526792 kvar=1.2488470964899614 Phases=1 yearly=res_kw_454_pu

New Load.load_p1ulv6416_1 conn=wye bus1=p1ulv6416.1 kV=0.12 Vminpu=0.8 Vmaxpu=1.2 model=1 kW=3.4468581914223817 kvar=1.1411197390818253 Phases=1 yearly=res_kw_250_pu

New Load.load_p1ulv6416_2 conn=wye bus1=p1ulv6416.2 kV=0.12 Vminpu=0.8 Vmaxpu=1.2 model=1 kW=3.4468581914223817 kvar=1.1411197390818253 Phases=1 yearly=res_kw_250_pu

New Load.load_p1ulv6417_1 conn=wye bus1=p1ulv6417.1 kV=0.12 Vminpu=0.8 Vmaxpu=1.2 model=1 kW=5.004398133545832 kvar=1.6986912664433456 Phases=1 yearly=res_kw_101_pu

New Load.load_p1ulv6417_2 conn=wye bus1=p1ulv6417.2 kV=0.12 Vminpu=0.8 Vmaxpu=1.2 model=1 kW=5.004398133545832 kvar=1.6986912664433456 Phases=1 yearly=res_kw_101_pu

New Load.load_p1ulv6418_1 conn=wye bus1=p1ulv6418.1 kV=0.12 Vminpu=0.8 Vmaxpu=1.2 model=1 kW=5.593814709601456 kvar=0.9267363329025571 Phases=1 yearly=res_kw_561_pu

New Load.load_p1ulv6418_2 conn=wye bus1=p1ulv6418.2 kV=0.12 Vminpu=0.8 Vmaxpu=1.2 model=1 kW=5.593814709601456 kvar=0.9267363329025571 Phases=1 yearly=res_kw_561_pu

New Load.load_p1ulv6419_1 conn=wye bus1=p1ulv6419.1 kV=0.12 Vminpu=0.8 Vmaxpu=1.2 model=1 kW=11.519913645766726 kvar=1.865620446374389 Phases=1 yearly=res_kw_754_pu

New Load.load_p1ulv6419_2 conn=wye bus1=p1ulv6419.2 kV=0.12 Vminpu=0.8 Vmaxpu=1.2 model=1 kW=11.519913645766726 kvar=1.865620446374389 Phases=1 yearly=res_kw_754_pu

New Load.load_p1ulv6420_1 conn=wye bus1=p1ulv6420.1 kV=0.12 Vminpu=0.8 Vmaxpu=1.2 model=1 kW=4.792624300749482 kvar=1.1139407265067676 Phases=1 yearly=res_kw_898_pu

New Load.load_p1ulv6420_2 conn=wye bus1=p1ulv6420.2 kV=0.12 Vminpu=0.8 Vmaxpu=1.2 model=1 kW=4.792624300749482 kvar=1.1139407265067676 Phases=1 yearly=res_kw_898_pu

New Load.load_p1ulv6421_1 conn=wye bus1=p1ulv6421.1 kV=0.12 Vminpu=0.8 Vmaxpu=1.2 model=1 kW=4.459622160646972 kvar=0.4507102731724574 Phases=1 yearly=res_kw_658_pu

New Load.load_p1ulv6421_2 conn=wye bus1=p1ulv6421.2 kV=0.12 Vminpu=0.8 Vmaxpu=1.2 model=1 kW=4.459622160646972 kvar=0.4507102731724574 Phases=1 yearly=res_kw_658_pu

New Load.load_p1ulv6422_1 conn=wye bus1=p1ulv6422.1 kV=0.12 Vminpu=0.8 Vmaxpu=1.2 model=1 kW=4.646033942300283 kvar=1.0114780078518586 Phases=1 yearly=res_kw_436_pu

New Load.load_p1ulv6422_2 conn=wye bus1=p1ulv6422.2 kV=0.12 Vminpu=0.8 Vmaxpu=1.2 model=1 kW=4.646033942300283 kvar=1.0114780078518586 Phases=1 yearly=res_kw_436_pu

New Load.load_p1ulv6423_1 conn=wye bus1=p1ulv6423.1 kV=0.12 Vminpu=0.8 Vmaxpu=1.2 model=1 kW=8.252260942121131 kvar=1.0100409923226146 Phases=1 yearly=res_kw_401_pu

New Load.load_p1ulv6423_2 conn=wye bus1=p1ulv6423.2 kV=0.12 Vminpu=0.8 Vmaxpu=1.2 model=1 kW=8.252260942121131 kvar=1.0100409923226146 Phases=1 yearly=res_kw_401_pu

New Load.load_p1ulv6424_1 conn=wye bus1=p1ulv6424.1 kV=0.12 Vminpu=0.8 Vmaxpu=1.2 model=1 kW=7.29964547707174 kvar=1.0805961207975088 Phases=1 yearly=res_kw_1066_pu

New Load.load_p1ulv6424_2 conn=wye bus1=p1ulv6424.2 kV=0.12 Vminpu=0.8 Vmaxpu=1.2 model=1 kW=7.29964547707174 kvar=1.0805961207975088 Phases=1 yearly=res_kw_1066_pu

New Load.load_p1ulv6425_1 conn=wye bus1=p1ulv6425.1 kV=0.12 Vminpu=0.8 Vmaxpu=1.2 model=1 kW=4.708977442537992 kvar=0.5396715316626463 Phases=1 yearly=res_kw_1138_pu

New Load.load_p1ulv6425_2 conn=wye bus1=p1ulv6425.2 kV=0.12 Vminpu=0.8 Vmaxpu=1.2 model=1 kW=4.708977442537992 kvar=0.5396715316626463 Phases=1 yearly=res_kw_1138_pu

New Load.load_p1ulv6426_1 conn=wye bus1=p1ulv6426.1 kV=0.12 Vminpu=0.8 Vmaxpu=1.2 model=1 kW=4.729490236624554 kvar=0.8722842145726449 Phases=1 yearly=res_kw_624_pu

New Load.load_p1ulv6426_2 conn=wye bus1=p1ulv6426.2 kV=0.12 Vminpu=0.8 Vmaxpu=1.2 model=1 kW=4.729490236624554 kvar=0.8722842145726449 Phases=1 yearly=res_kw_624_pu

New Load.load_p1ulv6427_1 conn=wye bus1=p1ulv6427.1 kV=0.12 Vminpu=0.8 Vmaxpu=1.2 model=1 kW=4.616693376528782 kvar=1.2150674100412684 Phases=1 yearly=res_kw_197_pu

New Load.load_p1ulv6427_2 conn=wye bus1=p1ulv6427.2 kV=0.12 Vminpu=0.8 Vmaxpu=1.2 model=1 kW=4.616693376528782 kvar=1.2150674100412684 Phases=1 yearly=res_kw_197_pu

New Load.load_p1ulv6428_1 conn=wye bus1=p1ulv6428.1 kV=0.12 Vminpu=0.8 Vmaxpu=1.2 model=1 kW=7.195337616187572 kvar=1.3536865792954904 Phases=1 yearly=res_kw_462_pu

New Load.load_p1ulv6428_2 conn=wye bus1=p1ulv6428.2 kV=0.12 Vminpu=0.8 Vmaxpu=1.2 model=1 kW=7.195337616187572 kvar=1.3536865792954904 Phases=1 yearly=res_kw_462_pu

New Load.load_p1ulv6429_1 conn=wye bus1=p1ulv6429.1 kV=0.12 Vminpu=0.8 Vmaxpu=1.2 model=1 kW=5.004398133545832 kvar=1.6986912664433456 Phases=1 yearly=res_kw_101_pu

New Load.load_p1ulv6429_2 conn=wye bus1=p1ulv6429.2 kV=0.12 Vminpu=0.8 Vmaxpu=1.2 model=1 kW=5.004398133545832 kvar=1.6986912664433456 Phases=1 yearly=res_kw_101_pu

New Load.load_p1ulv6430_1 conn=wye bus1=p1ulv6430.1 kV=0.12 Vminpu=0.8 Vmaxpu=1.2 model=1 kW=11.457721527492426 kvar=1.3801854390555242 Phases=1 yearly=res_kw_861_pu

New Load.load_p1ulv6430_2 conn=wye bus1=p1ulv6430.2 kV=0.12 Vminpu=0.8 Vmaxpu=1.2 model=1 kW=11.457721527492426 kvar=1.3801854390555242 Phases=1 yearly=res_kw_861_pu

New Load.load_p1ulv6431_1 conn=wye bus1=p1ulv6431.1 kV=0.12 Vminpu=0.8 Vmaxpu=1.2 model=1 kW=2.9898249364160714 kvar=0.2983164502279761 Phases=1 yearly=res_kw_1070_pu

New Load.load_p1ulv6431_2 conn=wye bus1=p1ulv6431.2 kV=0.12 Vminpu=0.8 Vmaxpu=1.2 model=1 kW=2.9898249364160714 kvar=0.2983164502279761 Phases=1 yearly=res_kw_1070_pu

New Load.load_p1ulv6432_1 conn=wye bus1=p1ulv6432.1 kV=0.12 Vminpu=0.8 Vmaxpu=1.2 model=1 kW=5.630366406134325 kvar=1.4654988363403099 Phases=1 yearly=res_kw_251_pu

New Load.load_p1ulv6432_2 conn=wye bus1=p1ulv6432.2 kV=0.12 Vminpu=0.8 Vmaxpu=1.2 model=1 kW=5.630366406134325 kvar=1.4654988363403099 Phases=1 yearly=res_kw_251_pu

New Load.load_p1ulv6433 conn=wye bus1=p1ulv6433.1.2.3 kV=0.48 Vminpu=0.8 Vmaxpu=1.2 model=1 kW=26.28939793771888 kvar=8.13234037642059 Phases=3 yearly=com_kw_14013_pu

New Load.load_p1ulv6434_1 conn=wye bus1=p1ulv6434.1 kV=0.12 Vminpu=0.8 Vmaxpu=1.2 model=1 kW=4.746269311492783 kvar=1.3210751032938461 Phases=1 yearly=res_kw_1080_pu

New Load.load_p1ulv6434_2 conn=wye bus1=p1ulv6434.2 kV=0.12 Vminpu=0.8 Vmaxpu=1.2 model=1 kW=4.746269311492783 kvar=1.3210751032938461 Phases=1 yearly=res_kw_1080_pu

New Load.load_p1ulv6435_1 conn=wye bus1=p1ulv6435.1 kV=0.12 Vminpu=0.8 Vmaxpu=1.2 model=1 kW=4.792624300749482 kvar=1.1139407265067676 Phases=1 yearly=res_kw_898_pu

New Load.load_p1ulv6435_2 conn=wye bus1=p1ulv6435.2 kV=0.12 Vminpu=0.8 Vmaxpu=1.2 model=1 kW=4.792624300749482 kvar=1.1139407265067676 Phases=1 yearly=res_kw_898_pu

New Load.load_p1ulv6436_1 conn=wye bus1=p1ulv6436.1 kV=0.12 Vminpu=0.8 Vmaxpu=1.2 model=1 kW=4.792624300749482 kvar=1.1139407265067676 Phases=1 yearly=res_kw_898_pu

New Load.load_p1ulv6436_2 conn=wye bus1=p1ulv6436.2 kV=0.12 Vminpu=0.8 Vmaxpu=1.2 model=1 kW=4.792624300749482 kvar=1.1139407265067676 Phases=1 yearly=res_kw_898_pu

New Load.load_p1ulv6437_1 conn=wye bus1=p1ulv6437.1 kV=0.12 Vminpu=0.8 Vmaxpu=1.2 model=1 kW=10.375628907780863 kvar=4.616486224330442 Phases=1 yearly=res_kw_1267_pu

New Load.load_p1ulv6437_2 conn=wye bus1=p1ulv6437.2 kV=0.12 Vminpu=0.8 Vmaxpu=1.2 model=1 kW=10.375628907780863 kvar=4.616486224330442 Phases=1 yearly=res_kw_1267_pu

New Load.load_p1ulv6438_1 conn=wye bus1=p1ulv6438.1 kV=0.12 Vminpu=0.8 Vmaxpu=1.2 model=1 kW=3.629714039262861 kvar=1.2034402112399032 Phases=1 yearly=res_kw_203_pu

New Load.load_p1ulv6438_2 conn=wye bus1=p1ulv6438.2 kV=0.12 Vminpu=0.8 Vmaxpu=1.2 model=1 kW=3.629714039262861 kvar=1.2034402112399032 Phases=1 yearly=res_kw_203_pu

New Load.load_p1ulv6439_1 conn=wye bus1=p1ulv6439.1 kV=0.12 Vminpu=0.8 Vmaxpu=1.2 model=1 kW=4.295703971004243 kvar=1.5592692759891595 Phases=1 yearly=res_kw_282_pu

New Load.load_p1ulv6439_2 conn=wye bus1=p1ulv6439.2 kV=0.12 Vminpu=0.8 Vmaxpu=1.2 model=1 kW=4.295703971004243 kvar=1.5592692759891595 Phases=1 yearly=res_kw_282_pu

New Load.load_p1ulv6440_1 conn=wye bus1=p1ulv6440.1 kV=0.12 Vminpu=0.8 Vmaxpu=1.2 model=1 kW=3.789884331965197 kvar=1.0036576715582408 Phases=1 yearly=res_kw_670_pu

New Load.load_p1ulv6440_2 conn=wye bus1=p1ulv6440.2 kV=0.12 Vminpu=0.8 Vmaxpu=1.2 model=1 kW=3.789884331965197 kvar=1.0036576715582408 Phases=1 yearly=res_kw_670_pu

New Load.load_p1ulv6446_1 conn=wye bus1=p1ulv6446.1 kV=0.12 Vminpu=0.8 Vmaxpu=1.2 model=1 kW=5.952010513068915 kvar=1.0861641198514242 Phases=1 yearly=res_kw_1108_pu

New Load.load_p1ulv6446_2 conn=wye bus1=p1ulv6446.2 kV=0.12 Vminpu=0.8 Vmaxpu=1.2 model=1 kW=5.952010513068915 kvar=1.0861641198514242 Phases=1 yearly=res_kw_1108_pu

New Load.load_p1ulv6447_1 conn=wye bus1=p1ulv6447.1 kV=0.12 Vminpu=0.8 Vmaxpu=1.2 model=1 kW=10.375628907780863 kvar=4.616486224330442 Phases=1 yearly=res_kw_1267_pu

New Load.load_p1ulv6447_2 conn=wye bus1=p1ulv6447.2 kV=0.12 Vminpu=0.8 Vmaxpu=1.2 model=1 kW=10.375628907780863 kvar=4.616486224330442 Phases=1 yearly=res_kw_1267_pu

New Load.load_p1ulv6456_1 conn=wye bus1=p1ulv6456.1 kV=0.12 Vminpu=0.8 Vmaxpu=1.2 model=1 kW=5.593814709601456 kvar=0.9267363329025571 Phases=1 yearly=res_kw_561_pu

New Load.load_p1ulv6456_2 conn=wye bus1=p1ulv6456.2 kV=0.12 Vminpu=0.8 Vmaxpu=1.2 model=1 kW=5.593814709601456 kvar=0.9267363329025571 Phases=1 yearly=res_kw_561_pu

New Load.load_p1ulv7333_1 conn=wye bus1=p1ulv7333.1 kV=0.12 Vminpu=0.8 Vmaxpu=1.2 model=1 kW=3.0502193323758338 kvar=0.7068547525403183 Phases=1 yearly=res_kw_407_pu

New Load.load_p1ulv7333_2 conn=wye bus1=p1ulv7333.2 kV=0.12 Vminpu=0.8 Vmaxpu=1.2 model=1 kW=3.0502193323758338 kvar=0.7068547525403183 Phases=1 yearly=res_kw_407_pu

New Load.load_p1ulv7334_1 conn=wye bus1=p1ulv7334.1 kV=0.12 Vminpu=0.8 Vmaxpu=1.2 model=1 kW=5.6593015111322105 kvar=1.2761251920573724 Phases=1 yearly=res_kw_324_pu

New Load.load_p1ulv7334_2 conn=wye bus1=p1ulv7334.2 kV=0.12 Vminpu=0.8 Vmaxpu=1.2 model=1 kW=5.6593015111322105 kvar=1.2761251920573724 Phases=1 yearly=res_kw_324_pu

New Load.load_p1ulv7335_1 conn=wye bus1=p1ulv7335.1 kV=0.12 Vminpu=0.8 Vmaxpu=1.2 model=1 kW=5.756929973442986 kvar=1.231792610114507 Phases=1 yearly=res_kw_339_pu

New Load.load_p1ulv7335_2 conn=wye bus1=p1ulv7335.2 kV=0.12 Vminpu=0.8 Vmaxpu=1.2 model=1 kW=5.756929973442986 kvar=1.231792610114507 Phases=1 yearly=res_kw_339_pu

New Load.load_p1ulv7336_1 conn=wye bus1=p1ulv7336.1 kV=0.12 Vminpu=0.8 Vmaxpu=1.2 model=1 kW=4.889402611994926 kvar=1.0559288347164948 Phases=1 yearly=res_kw_1160_pu

New Load.load_p1ulv7336_2 conn=wye bus1=p1ulv7336.2 kV=0.12 Vminpu=0.8 Vmaxpu=1.2 model=1 kW=4.889402611994926 kvar=1.0559288347164948 Phases=1 yearly=res_kw_1160_pu

New Load.load_p1ulv7337_1 conn=wye bus1=p1ulv7337.1 kV=0.12 Vminpu=0.8 Vmaxpu=1.2 model=1 kW=6.326714615561071 kvar=1.6676010778457313 Phases=1 yearly=res_kw_7_pu

New Load.load_p1ulv7337_2 conn=wye bus1=p1ulv7337.2 kV=0.12 Vminpu=0.8 Vmaxpu=1.2 model=1 kW=6.326714615561071 kvar=1.6676010778457313 Phases=1 yearly=res_kw_7_pu

New Load.load_p1ulv7338_1 conn=wye bus1=p1ulv7338.1 kV=0.12 Vminpu=0.8 Vmaxpu=1.2 model=1 kW=9.666699253995569 kvar=2.090221480167897 Phases=1 yearly=res_kw_46_pu

New Load.load_p1ulv7338_2 conn=wye bus1=p1ulv7338.2 kV=0.12 Vminpu=0.8 Vmaxpu=1.2 model=1 kW=9.666699253995569 kvar=2.090221480167897 Phases=1 yearly=res_kw_46_pu

New Load.load_p1ulv7339_1 conn=wye bus1=p1ulv7339.1 kV=0.12 Vminpu=0.8 Vmaxpu=1.2 model=1 kW=5.004398133545832 kvar=1.6986912664433456 Phases=1 yearly=res_kw_101_pu

New Load.load_p1ulv7339_2 conn=wye bus1=p1ulv7339.2 kV=0.12 Vminpu=0.8 Vmaxpu=1.2 model=1 kW=5.004398133545832 kvar=1.6986912664433456 Phases=1 yearly=res_kw_101_pu

New Load.load_p1ulv7340_1 conn=wye bus1=p1ulv7340.1 kV=0.12 Vminpu=0.8 Vmaxpu=1.2 model=1 kW=3.963001053413761 kvar=0.9410786890170905 Phases=1 yearly=res_kw_1256_pu

New Load.load_p1ulv7340_2 conn=wye bus1=p1ulv7340.2 kV=0.12 Vminpu=0.8 Vmaxpu=1.2 model=1 kW=3.963001053413761 kvar=0.9410786890170905 Phases=1 yearly=res_kw_1256_pu

New Load.load_p1ulv7341_1 conn=wye bus1=p1ulv7341.1 kV=0.12 Vminpu=0.8 Vmaxpu=1.2 model=1 kW=3.963001053413761 kvar=0.9410786890170905 Phases=1 yearly=res_kw_1256_pu

New Load.load_p1ulv7341_2 conn=wye bus1=p1ulv7341.2 kV=0.12 Vminpu=0.8 Vmaxpu=1.2 model=1 kW=3.963001053413761 kvar=0.9410786890170905 Phases=1 yearly=res_kw_1256_pu

New Load.load_p1ulv7342_1 conn=wye bus1=p1ulv7342.1 kV=0.12 Vminpu=0.8 Vmaxpu=1.2 model=1 kW=6.224817813202313 kvar=1.7553010009693135 Phases=1 yearly=res_kw_710_pu

New Load.load_p1ulv7342_2 conn=wye bus1=p1ulv7342.2 kV=0.12 Vminpu=0.8 Vmaxpu=1.2 model=1 kW=6.224817813202313 kvar=1.7553010009693135 Phases=1 yearly=res_kw_710_pu

New Load.load_p1ulv7343_1 conn=wye bus1=p1ulv7343.1 kV=0.12 Vminpu=0.8 Vmaxpu=1.2 model=1 kW=7.259772519581312 kvar=1.3210086815250959 Phases=1 yearly=res_kw_128_pu

New Load.load_p1ulv7343_2 conn=wye bus1=p1ulv7343.2 kV=0.12 Vminpu=0.8 Vmaxpu=1.2 model=1 kW=7.259772519581312 kvar=1.3210086815250959 Phases=1 yearly=res_kw_128_pu

New Load.load_p1ulv7344_1 conn=wye bus1=p1ulv7344.1 kV=0.12 Vminpu=0.8 Vmaxpu=1.2 model=1 kW=4.658663502989286 kvar=1.3388389434895354 Phases=1 yearly=res_kw_182_pu

New Load.load_p1ulv7344_2 conn=wye bus1=p1ulv7344.2 kV=0.12 Vminpu=0.8 Vmaxpu=1.2 model=1 kW=4.658663502989286 kvar=1.3388389434895354 Phases=1 yearly=res_kw_182_pu

New Load.load_p1ulv7345_1 conn=wye bus1=p1ulv7345.1 kV=0.12 Vminpu=0.8 Vmaxpu=1.2 model=1 kW=2.605021030189827 kvar=1.0007509371876184 Phases=1 yearly=res_kw_24_pu

New Load.load_p1ulv7345_2 conn=wye bus1=p1ulv7345.2 kV=0.12 Vminpu=0.8 Vmaxpu=1.2 model=1 kW=2.605021030189827 kvar=1.0007509371876184 Phases=1 yearly=res_kw_24_pu

New Load.load_p1ulv7346_1 conn=wye bus1=p1ulv7346.1 kV=0.12 Vminpu=0.8 Vmaxpu=1.2 model=1 kW=5.991917116566147 kvar=1.6692124001399427 Phases=1 yearly=res_kw_314_pu

New Load.load_p1ulv7346_2 conn=wye bus1=p1ulv7346.2 kV=0.12 Vminpu=0.8 Vmaxpu=1.2 model=1 kW=5.991917116566147 kvar=1.6692124001399427 Phases=1 yearly=res_kw_314_pu

New Load.load_p1ulv7347_1 conn=wye bus1=p1ulv7347.1 kV=0.12 Vminpu=0.8 Vmaxpu=1.2 model=1 kW=5.991917116566147 kvar=1.6692124001399427 Phases=1 yearly=res_kw_314_pu

New Load.load_p1ulv7347_2 conn=wye bus1=p1ulv7347.2 kV=0.12 Vminpu=0.8 Vmaxpu=1.2 model=1 kW=5.991917116566147 kvar=1.6692124001399427 Phases=1 yearly=res_kw_314_pu

New Load.load_p1ulv7348_1 conn=wye bus1=p1ulv7348.1 kV=0.12 Vminpu=0.8 Vmaxpu=1.2 model=1 kW=7.259772519581312 kvar=1.3210086815250959 Phases=1 yearly=res_kw_128_pu

New Load.load_p1ulv7348_2 conn=wye bus1=p1ulv7348.2 kV=0.12 Vminpu=0.8 Vmaxpu=1.2 model=1 kW=7.259772519581312 kvar=1.3210086815250959 Phases=1 yearly=res_kw_128_pu

New Load.load_p1ulv7349_1 conn=wye bus1=p1ulv7349.1 kV=0.12 Vminpu=0.8 Vmaxpu=1.2 model=1 kW=3.7358442183619687 kvar=0.8837352156355889 Phases=1 yearly=res_kw_522_pu

New Load.load_p1ulv7349_2 conn=wye bus1=p1ulv7349.2 kV=0.12 Vminpu=0.8 Vmaxpu=1.2 model=1 kW=3.7358442183619687 kvar=0.8837352156355889 Phases=1 yearly=res_kw_522_pu

New Load.load_p1ulv7350_1 conn=wye bus1=p1ulv7350.1 kV=0.12 Vminpu=0.8 Vmaxpu=1.2 model=1 kW=6.002007594404856 kvar=1.373736088576884 Phases=1 yearly=res_kw_823_pu

New Load.load_p1ulv7350_2 conn=wye bus1=p1ulv7350.2 kV=0.12 Vminpu=0.8 Vmaxpu=1.2 model=1 kW=6.002007594404856 kvar=1.373736088576884 Phases=1 yearly=res_kw_823_pu

New Load.load_p1ulv7351_1 conn=wye bus1=p1ulv7351.1 kV=0.12 Vminpu=0.8 Vmaxpu=1.2 model=1 kW=2.605021030189827 kvar=1.0007509371876184 Phases=1 yearly=res_kw_24_pu

New Load.load_p1ulv7351_2 conn=wye bus1=p1ulv7351.2 kV=0.12 Vminpu=0.8 Vmaxpu=1.2 model=1 kW=2.605021030189827 kvar=1.0007509371876184 Phases=1 yearly=res_kw_24_pu

New Load.load_p1ulv7352_1 conn=wye bus1=p1ulv7352.1 kV=0.12 Vminpu=0.8 Vmaxpu=1.2 model=1 kW=7.7578735794910925 kvar=1.9049941012910125 Phases=1 yearly=res_kw_863_pu

New Load.load_p1ulv7352_2 conn=wye bus1=p1ulv7352.2 kV=0.12 Vminpu=0.8 Vmaxpu=1.2 model=1 kW=7.7578735794910925 kvar=1.9049941012910125 Phases=1 yearly=res_kw_863_pu

New Load.load_p1ulv7353_1 conn=wye bus1=p1ulv7353.1 kV=0.12 Vminpu=0.8 Vmaxpu=1.2 model=1 kW=3.6844020253442458 kvar=1.4451491397155931 Phases=1 yearly=res_kw_1258_pu

New Load.load_p1ulv7353_2 conn=wye bus1=p1ulv7353.2 kV=0.12 Vminpu=0.8 Vmaxpu=1.2 model=1 kW=3.6844020253442458 kvar=1.4451491397155931 Phases=1 yearly=res_kw_1258_pu

New Load.load_p1ulv7354_1 conn=wye bus1=p1ulv7354.1 kV=0.12 Vminpu=0.8 Vmaxpu=1.2 model=1 kW=7.04256695844029 kvar=1.659740351203588 Phases=1 yearly=res_kw_707_pu

New Load.load_p1ulv7354_2 conn=wye bus1=p1ulv7354.2 kV=0.12 Vminpu=0.8 Vmaxpu=1.2 model=1 kW=7.04256695844029 kvar=1.659740351203588 Phases=1 yearly=res_kw_707_pu

New Load.load_p1ulv7355_1 conn=wye bus1=p1ulv7355.1 kV=0.12 Vminpu=0.8 Vmaxpu=1.2 model=1 kW=4.729490236624554 kvar=0.8722842145726449 Phases=1 yearly=res_kw_624_pu

New Load.load_p1ulv7355_2 conn=wye bus1=p1ulv7355.2 kV=0.12 Vminpu=0.8 Vmaxpu=1.2 model=1 kW=4.729490236624554 kvar=0.8722842145726449 Phases=1 yearly=res_kw_624_pu

New Load.load_p1ulv7356_1 conn=wye bus1=p1ulv7356.1 kV=0.12 Vminpu=0.8 Vmaxpu=1.2 model=1 kW=3.3641909207712115 kvar=0.9284266244461494 Phases=1 yearly=res_kw_523_pu

New Load.load_p1ulv7356_2 conn=wye bus1=p1ulv7356.2 kV=0.12 Vminpu=0.8 Vmaxpu=1.2 model=1 kW=3.3641909207712115 kvar=0.9284266244461494 Phases=1 yearly=res_kw_523_pu

New Load.load_p1ulv7357_1 conn=wye bus1=p1ulv7357.1 kV=0.12 Vminpu=0.8 Vmaxpu=1.2 model=1 kW=6.139488924452324 kvar=1.0282575631325632 Phases=1 yearly=res_kw_421_pu

New Load.load_p1ulv7357_2 conn=wye bus1=p1ulv7357.2 kV=0.12 Vminpu=0.8 Vmaxpu=1.2 model=1 kW=6.139488924452324 kvar=1.0282575631325632 Phases=1 yearly=res_kw_421_pu

New Load.load_p1ulv7358_1 conn=wye bus1=p1ulv7358.1 kV=0.12 Vminpu=0.8 Vmaxpu=1.2 model=1 kW=5.436729579526792 kvar=1.2488470964899614 Phases=1 yearly=res_kw_454_pu

New Load.load_p1ulv7358_2 conn=wye bus1=p1ulv7358.2 kV=0.12 Vminpu=0.8 Vmaxpu=1.2 model=1 kW=5.436729579526792 kvar=1.2488470964899614 Phases=1 yearly=res_kw_454_pu

New Load.load_p1ulv7359_1 conn=wye bus1=p1ulv7359.1 kV=0.12 Vminpu=0.8 Vmaxpu=1.2 model=1 kW=4.889402611994926 kvar=1.0559288347164948 Phases=1 yearly=res_kw_1160_pu

New Load.load_p1ulv7359_2 conn=wye bus1=p1ulv7359.2 kV=0.12 Vminpu=0.8 Vmaxpu=1.2 model=1 kW=4.889402611994926 kvar=1.0559288347164948 Phases=1 yearly=res_kw_1160_pu

New Load.load_p1ulv7360_1 conn=wye bus1=p1ulv7360.1 kV=0.12 Vminpu=0.8 Vmaxpu=1.2 model=1 kW=2.40000228705824 kvar=1.0173787262529668 Phases=1 yearly=res_kw_1205_pu

New Load.load_p1ulv7360_2 conn=wye bus1=p1ulv7360.2 kV=0.12 Vminpu=0.8 Vmaxpu=1.2 model=1 kW=2.40000228705824 kvar=1.0173787262529668 Phases=1 yearly=res_kw_1205_pu

New Load.load_p1ulv7361_1 conn=wye bus1=p1ulv7361.1 kV=0.12 Vminpu=0.8 Vmaxpu=1.2 model=1 kW=7.820072877358693 kvar=1.759853089528969 Phases=1 yearly=res_kw_97_pu

New Load.load_p1ulv7361_2 conn=wye bus1=p1ulv7361.2 kV=0.12 Vminpu=0.8 Vmaxpu=1.2 model=1 kW=7.820072877358693 kvar=1.759853089528969 Phases=1 yearly=res_kw_97_pu

New Load.load_p1ulv7362_1 conn=wye bus1=p1ulv7362.1 kV=0.12 Vminpu=0.8 Vmaxpu=1.2 model=1 kW=6.520159505202592 kvar=1.1378587223610979 Phases=1 yearly=res_kw_879_pu

New Load.load_p1ulv7362_2 conn=wye bus1=p1ulv7362.2 kV=0.12 Vminpu=0.8 Vmaxpu=1.2 model=1 kW=6.520159505202592 kvar=1.1378587223610979 Phases=1 yearly=res_kw_879_pu

New Load.load_p1ulv7363_1 conn=wye bus1=p1ulv7363.1 kV=0.12 Vminpu=0.8 Vmaxpu=1.2 model=1 kW=5.436729579526792 kvar=1.2488470964899614 Phases=1 yearly=res_kw_454_pu

New Load.load_p1ulv7363_2 conn=wye bus1=p1ulv7363.2 kV=0.12 Vminpu=0.8 Vmaxpu=1.2 model=1 kW=5.436729579526792 kvar=1.2488470964899614 Phases=1 yearly=res_kw_454_pu

New Load.load_p1ulv7364_1 conn=wye bus1=p1ulv7364.1 kV=0.12 Vminpu=0.8 Vmaxpu=1.2 model=1 kW=5.772584848285176 kvar=1.3225757839012733 Phases=1 yearly=res_kw_599_pu

New Load.load_p1ulv7364_2 conn=wye bus1=p1ulv7364.2 kV=0.12 Vminpu=0.8 Vmaxpu=1.2 model=1 kW=5.772584848285176 kvar=1.3225757839012733 Phases=1 yearly=res_kw_599_pu

New Load.load_p1ulv7365_1 conn=wye bus1=p1ulv7365.1 kV=0.12 Vminpu=0.8 Vmaxpu=1.2 model=1 kW=5.7981206415948625 kvar=1.408328470231474 Phases=1 yearly=res_kw_995_pu

New Load.load_p1ulv7365_2 conn=wye bus1=p1ulv7365.2 kV=0.12 Vminpu=0.8 Vmaxpu=1.2 model=1 kW=5.7981206415948625 kvar=1.408328470231474 Phases=1 yearly=res_kw_995_pu

New Load.load_p1ulv7366_1 conn=wye bus1=p1ulv7366.1 kV=0.12 Vminpu=0.8 Vmaxpu=1.2 model=1 kW=4.725263221485363 kvar=1.0173757011563145 Phases=1 yearly=res_kw_752_pu

New Load.load_p1ulv7366_2 conn=wye bus1=p1ulv7366.2 kV=0.12 Vminpu=0.8 Vmaxpu=1.2 model=1 kW=4.725263221485363 kvar=1.0173757011563145 Phases=1 yearly=res_kw_752_pu

New Load.load_p1ulv7367_1 conn=wye bus1=p1ulv7367.1 kV=0.12 Vminpu=0.8 Vmaxpu=1.2 model=1 kW=4.47171304939181 kvar=1.1676103385976955 Phases=1 yearly=res_kw_627_pu

New Load.load_p1ulv7367_2 conn=wye bus1=p1ulv7367.2 kV=0.12 Vminpu=0.8 Vmaxpu=1.2 model=1 kW=4.47171304939181 kvar=1.1676103385976955 Phases=1 yearly=res_kw_627_pu

New Load.load_p1ulv7368_1 conn=wye bus1=p1ulv7368.1 kV=0.12 Vminpu=0.8 Vmaxpu=1.2 model=1 kW=3.8029744718879392 kvar=1.1462670306842289 Phases=1 yearly=res_kw_263_pu

New Load.load_p1ulv7368_2 conn=wye bus1=p1ulv7368.2 kV=0.12 Vminpu=0.8 Vmaxpu=1.2 model=1 kW=3.8029744718879392 kvar=1.1462670306842289 Phases=1 yearly=res_kw_263_pu

New Load.load_p1ulv7369_1 conn=wye bus1=p1ulv7369.1 kV=0.12 Vminpu=0.8 Vmaxpu=1.2 model=1 kW=3.4468581914223817 kvar=1.1411197390818253 Phases=1 yearly=res_kw_250_pu

New Load.load_p1ulv7369_2 conn=wye bus1=p1ulv7369.2 kV=0.12 Vminpu=0.8 Vmaxpu=1.2 model=1 kW=3.4468581914223817 kvar=1.1411197390818253 Phases=1 yearly=res_kw_250_pu

New Load.load_p1ulv7370_1 conn=wye bus1=p1ulv7370.1 kV=0.12 Vminpu=0.8 Vmaxpu=1.2 model=1 kW=6.251204132654125 kvar=1.5952530188558731 Phases=1 yearly=res_kw_1248_pu

New Load.load_p1ulv7370_2 conn=wye bus1=p1ulv7370.2 kV=0.12 Vminpu=0.8 Vmaxpu=1.2 model=1 kW=6.251204132654125 kvar=1.5952530188558731 Phases=1 yearly=res_kw_1248_pu

New Load.load_p1ulv7371_1 conn=wye bus1=p1ulv7371.1 kV=0.12 Vminpu=0.8 Vmaxpu=1.2 model=1 kW=3.3641909207712115 kvar=0.9284266244461494 Phases=1 yearly=res_kw_523_pu

New Load.load_p1ulv7371_2 conn=wye bus1=p1ulv7371.2 kV=0.12 Vminpu=0.8 Vmaxpu=1.2 model=1 kW=3.3641909207712115 kvar=0.9284266244461494 Phases=1 yearly=res_kw_523_pu

New Load.load_p1ulv7372_1 conn=wye bus1=p1ulv7372.1 kV=0.12 Vminpu=0.8 Vmaxpu=1.2 model=1 kW=3.308494316062581 kvar=0.7969773391329138 Phases=1 yearly=res_kw_626_pu

New Load.load_p1ulv7372_2 conn=wye bus1=p1ulv7372.2 kV=0.12 Vminpu=0.8 Vmaxpu=1.2 model=1 kW=3.308494316062581 kvar=0.7969773391329138 Phases=1 yearly=res_kw_626_pu

New Load.load_p1ulv7373_1 conn=wye bus1=p1ulv7373.1 kV=0.12 Vminpu=0.8 Vmaxpu=1.2 model=1 kW=3.8029744718879392 kvar=1.1462670306842289 Phases=1 yearly=res_kw_263_pu

New Load.load_p1ulv7373_2 conn=wye bus1=p1ulv7373.2 kV=0.12 Vminpu=0.8 Vmaxpu=1.2 model=1 kW=3.8029744718879392 kvar=1.1462670306842289 Phases=1 yearly=res_kw_263_pu

New Load.load_p1ulv7374_1 conn=wye bus1=p1ulv7374.1 kV=0.12 Vminpu=0.8 Vmaxpu=1.2 model=1 kW=2.916803644387601 kvar=0.11499518252231355 Phases=1 yearly=res_kw_1094_pu

New Load.load_p1ulv7374_2 conn=wye bus1=p1ulv7374.2 kV=0.12 Vminpu=0.8 Vmaxpu=1.2 model=1 kW=2.916803644387601 kvar=0.11499518252231355 Phases=1 yearly=res_kw_1094_pu

New Load.load_p1ulv7375_1 conn=wye bus1=p1ulv7375.1 kV=0.12 Vminpu=0.8 Vmaxpu=1.2 model=1 kW=2.6241521841182514 kvar=0.8429304779950015 Phases=1 yearly=res_kw_33_pu

New Load.load_p1ulv7375_2 conn=wye bus1=p1ulv7375.2 kV=0.12 Vminpu=0.8 Vmaxpu=1.2 model=1 kW=2.6241521841182514 kvar=0.8429304779950015 Phases=1 yearly=res_kw_33_pu

New Load.load_p1ulv7376_1 conn=wye bus1=p1ulv7376.1 kV=0.12 Vminpu=0.8 Vmaxpu=1.2 model=1 kW=5.991566549041883 kvar=1.4552695367795996 Phases=1 yearly=res_kw_1283_pu

New Load.load_p1ulv7376_2 conn=wye bus1=p1ulv7376.2 kV=0.12 Vminpu=0.8 Vmaxpu=1.2 model=1 kW=5.991566549041883 kvar=1.4552695367795996 Phases=1 yearly=res_kw_1283_pu

New Load.load_p1ulv7377_1 conn=wye bus1=p1ulv7377.1 kV=0.12 Vminpu=0.8 Vmaxpu=1.2 model=1 kW=5.657185051194877 kvar=1.2069063012387689 Phases=1 yearly=res_kw_780_pu

New Load.load_p1ulv7377_2 conn=wye bus1=p1ulv7377.2 kV=0.12 Vminpu=0.8 Vmaxpu=1.2 model=1 kW=5.657185051194877 kvar=1.2069063012387689 Phases=1 yearly=res_kw_780_pu

New Load.load_p1ulv7378_1 conn=wye bus1=p1ulv7378.1 kV=0.12 Vminpu=0.8 Vmaxpu=1.2 model=1 kW=5.436729579526792 kvar=1.2488470964899614 Phases=1 yearly=res_kw_454_pu

New Load.load_p1ulv7378_2 conn=wye bus1=p1ulv7378.2 kV=0.12 Vminpu=0.8 Vmaxpu=1.2 model=1 kW=5.436729579526792 kvar=1.2488470964899614 Phases=1 yearly=res_kw_454_pu

New Load.load_p1ulv7379_1 conn=wye bus1=p1ulv7379.1 kV=0.12 Vminpu=0.8 Vmaxpu=1.2 model=1 kW=5.927737313300522 kvar=2.018482424064332 Phases=1 yearly=res_kw_38_pu

New Load.load_p1ulv7379_2 conn=wye bus1=p1ulv7379.2 kV=0.12 Vminpu=0.8 Vmaxpu=1.2 model=1 kW=5.927737313300522 kvar=2.018482424064332 Phases=1 yearly=res_kw_38_pu

New Load.load_p1ulv7380_1 conn=wye bus1=p1ulv7380.1 kV=0.12 Vminpu=0.8 Vmaxpu=1.2 model=1 kW=3.789884331965197 kvar=1.0036576715582408 Phases=1 yearly=res_kw_670_pu

New Load.load_p1ulv7380_2 conn=wye bus1=p1ulv7380.2 kV=0.12 Vminpu=0.8 Vmaxpu=1.2 model=1 kW=3.789884331965197 kvar=1.0036576715582408 Phases=1 yearly=res_kw_670_pu

New Load.load_p1ulv7381_1 conn=wye bus1=p1ulv7381.1 kV=0.12 Vminpu=0.8 Vmaxpu=1.2 model=1 kW=5.286987923172412 kvar=0.912918656895422 Phases=1 yearly=res_kw_75_pu

New Load.load_p1ulv7381_2 conn=wye bus1=p1ulv7381.2 kV=0.12 Vminpu=0.8 Vmaxpu=1.2 model=1 kW=5.286987923172412 kvar=0.912918656895422 Phases=1 yearly=res_kw_75_pu

New Load.load_p1ulv7382_1 conn=wye bus1=p1ulv7382.1 kV=0.12 Vminpu=0.8 Vmaxpu=1.2 model=1 kW=5.723135606665604 kvar=1.5038194991101048 Phases=1 yearly=res_kw_1228_pu

New Load.load_p1ulv7382_2 conn=wye bus1=p1ulv7382.2 kV=0.12 Vminpu=0.8 Vmaxpu=1.2 model=1 kW=5.723135606665604 kvar=1.5038194991101048 Phases=1 yearly=res_kw_1228_pu

New Load.load_p1ulv7383_1 conn=wye bus1=p1ulv7383.1 kV=0.12 Vminpu=0.8 Vmaxpu=1.2 model=1 kW=3.8748715750127736 kvar=1.5614372175332516 Phases=1 yearly=res_kw_517_pu

New Load.load_p1ulv7383_2 conn=wye bus1=p1ulv7383.2 kV=0.12 Vminpu=0.8 Vmaxpu=1.2 model=1 kW=3.8748715750127736 kvar=1.5614372175332516 Phases=1 yearly=res_kw_517_pu

New Load.load_p1ulv7384_1 conn=wye bus1=p1ulv7384.1 kV=0.12 Vminpu=0.8 Vmaxpu=1.2 model=1 kW=1.7932717143582468 kvar=0.4137486634368157 Phases=1 yearly=res_kw_931_pu

New Load.load_p1ulv7384_2 conn=wye bus1=p1ulv7384.2 kV=0.12 Vminpu=0.8 Vmaxpu=1.2 model=1 kW=1.7932717143582468 kvar=0.4137486634368157 Phases=1 yearly=res_kw_931_pu

New Load.load_p1ulv7385_1 conn=wye bus1=p1ulv7385.1 kV=0.12 Vminpu=0.8 Vmaxpu=1.2 model=1 kW=5.525867382240863 kvar=0.8142760818599521 Phases=1 yearly=res_kw_904_pu

New Load.load_p1ulv7385_2 conn=wye bus1=p1ulv7385.2 kV=0.12 Vminpu=0.8 Vmaxpu=1.2 model=1 kW=5.525867382240863 kvar=0.8142760818599521 Phases=1 yearly=res_kw_904_pu

New Load.load_p1ulv7386_1 conn=wye bus1=p1ulv7386.1 kV=0.12 Vminpu=0.8 Vmaxpu=1.2 model=1 kW=7.04256695844029 kvar=1.659740351203588 Phases=1 yearly=res_kw_707_pu

New Load.load_p1ulv7386_2 conn=wye bus1=p1ulv7386.2 kV=0.12 Vminpu=0.8 Vmaxpu=1.2 model=1 kW=7.04256695844029 kvar=1.659740351203588 Phases=1 yearly=res_kw_707_pu

New Load.load_p1ulv7905_1 conn=wye bus1=p1ulv7905.1 kV=0.12 Vminpu=0.8 Vmaxpu=1.2 model=1 kW=5.69133246771406 kvar=0.8975765721489779 Phases=1 yearly=res_kw_63_pu
