New Load.load_p1ulv1283 conn=wye bus1=p1ulv1283.1.2.3 kV=0.48 Vminpu=0.8 Vmaxpu=1.2 model=1 kW=33.504111030211924 kvar=6.798962415677346 Phases=3 yearly=com_kw_14291_pu

New Load.load_p1ulv1284_1 conn=wye bus1=p1ulv1284.1 kV=0.12 Vminpu=0.8 Vmaxpu=1.2 model=1 kW=5.723135606665604 kvar=1.5038194991101048 Phases=1 yearly=res_kw_1228_pu

New Load.load_p1ulv1284_2 conn=wye bus1=p1ulv1284.2 kV=0.12 Vminpu=0.8 Vmaxpu=1.2 model=1 kW=5.723135606665604 kvar=1.5038194991101048 Phases=1 yearly=res_kw_1228_pu

New Load.load_p1ulv1285 conn=wye bus1=p1ulv1285.1.2.3 kV=0.48 Vminpu=0.8 Vmaxpu=1.2 model=1 kW=37.23408636169173 kvar=8.8243100183342 Phases=3 yearly=com_kw_13576_pu

New Load.load_p1ulv1286_1 conn=wye bus1=p1ulv1286.1 kV=0.12 Vminpu=0.8 Vmaxpu=1.2 model=1 kW=4.081735511976485 kvar=0.9882394625849078 Phases=1 yearly=com_kw_14650_pu

New Load.load_p1ulv1286_2 conn=wye bus1=p1ulv1286.2 kV=0.12 Vminpu=0.8 Vmaxpu=1.2 model=1 kW=4.081735511976485 kvar=0.9882394625849078 Phases=1 yearly=com_kw_14650_pu

New Load.load_p1ulv1287_1 conn=wye bus1=p1ulv1287.1 kV=0.12 Vminpu=0.8 Vmaxpu=1.2 model=1 kW=9.358521499301396 kvar=0.9436008203397507 Phases=1 yearly=com_kw_12824_pu

New Load.load_p1ulv1287_2 conn=wye bus1=p1ulv1287.2 kV=0.12 Vminpu=0.8 Vmaxpu=1.2 model=1 kW=9.358521499301396 kvar=0.9436008203397507 Phases=1 yearly=com_kw_12824_pu

New Load.load_p1ulv2798 conn=wye bus1=p1ulv2798.1.2.3 kV=0.48 Vminpu=0.8 Vmaxpu=1.2 model=1 kW=43.73505631398508 kvar=5.0290236670440045 Phases=3 yearly=res_kw_598_pu

New Load.load_p1ulv3862_1 conn=wye bus1=p1ulv3862.1 kV=0.12 Vminpu=0.8 Vmaxpu=1.2 model=1 kW=2.3700113203165794 kvar=1.0419328311463634 Phases=1 yearly=res_kw_327_pu

New Load.load_p1ulv3862_2 conn=wye bus1=p1ulv3862.2 kV=0.12 Vminpu=0.8 Vmaxpu=1.2 model=1 kW=2.3700113203165794 kvar=1.0419328311463634 Phases=1 yearly=res_kw_327_pu

New Load.load_p1ulv3863_1 conn=wye bus1=p1ulv3863.1 kV=0.12 Vminpu=0.8 Vmaxpu=1.2 model=1 kW=3.2614858144948595 kvar=1.432421357457426 Phases=1 yearly=res_kw_431_pu

New Load.load_p1ulv3863_2 conn=wye bus1=p1ulv3863.2 kV=0.12 Vminpu=0.8 Vmaxpu=1.2 model=1 kW=3.2614858144948595 kvar=1.432421357457426 Phases=1 yearly=res_kw_431_pu

New Load.load_p1ulv3864_1 conn=wye bus1=p1ulv3864.1 kV=0.12 Vminpu=0.8 Vmaxpu=1.2 model=1 kW=3.2614858144948595 kvar=1.432421357457426 Phases=1 yearly=res_kw_431_pu

New Load.load_p1ulv3864_2 conn=wye bus1=p1ulv3864.2 kV=0.12 Vminpu=0.8 Vmaxpu=1.2 model=1 kW=3.2614858144948595 kvar=1.432421357457426 Phases=1 yearly=res_kw_431_pu

New Load.load_p1ulv3865_1 conn=wye bus1=p1ulv3865.1 kV=0.12 Vminpu=0.8 Vmaxpu=1.2 model=1 kW=3.2614858144948595 kvar=1.432421357457426 Phases=1 yearly=res_kw_431_pu

New Load.load_p1ulv3865_2 conn=wye bus1=p1ulv3865.2 kV=0.12 Vminpu=0.8 Vmaxpu=1.2 model=1 kW=3.2614858144948595 kvar=1.432421357457426 Phases=1 yearly=res_kw_431_pu

New Load.load_p1ulv3866_1 conn=wye bus1=p1ulv3866.1 kV=0.12 Vminpu=0.8 Vmaxpu=1.2 model=1 kW=4.255303740900178 kvar=1.3788619382740643 Phases=1 yearly=res_kw_332_pu

New Load.load_p1ulv3866_2 conn=wye bus1=p1ulv3866.2 kV=0.12 Vminpu=0.8 Vmaxpu=1.2 model=1 kW=4.255303740900178 kvar=1.3788619382740643 Phases=1 yearly=res_kw_332_pu

New Load.load_p1ulv3867_1 conn=wye bus1=p1ulv3867.1 kV=0.12 Vminpu=0.8 Vmaxpu=1.2 model=1 kW=2.3700113203165794 kvar=1.0419328311463634 Phases=1 yearly=res_kw_327_pu

New Load.load_p1ulv3867_2 conn=wye bus1=p1ulv3867.2 kV=0.12 Vminpu=0.8 Vmaxpu=1.2 model=1 kW=2.3700113203165794 kvar=1.0419328311463634 Phases=1 yearly=res_kw_327_pu

New Load.load_p1ulv3870_1 conn=wye bus1=p1ulv3870.1 kV=0.12 Vminpu=0.8 Vmaxpu=1.2 model=1 kW=3.2614858144948595 kvar=1.432421357457426 Phases=1 yearly=res_kw_431_pu

New Load.load_p1ulv3870_2 conn=wye bus1=p1ulv3870.2 kV=0.12 Vminpu=0.8 Vmaxpu=1.2 model=1 kW=3.2614858144948595 kvar=1.432421357457426 Phases=1 yearly=res_kw_431_pu

New Load.load_p1ulv3871_1 conn=wye bus1=p1ulv3871.1 kV=0.12 Vminpu=0.8 Vmaxpu=1.2 model=1 kW=3.2614858144948595 kvar=1.432421357457426 Phases=1 yearly=res_kw_431_pu

New Load.load_p1ulv3871_2 conn=wye bus1=p1ulv3871.2 kV=0.12 Vminpu=0.8 Vmaxpu=1.2 model=1 kW=3.2614858144948595 kvar=1.432421357457426 Phases=1 yearly=res_kw_431_pu

New Load.load_p1ulv3872_1 conn=wye bus1=p1ulv3872.1 kV=0.12 Vminpu=0.8 Vmaxpu=1.2 model=1 kW=3.2614858144948595 kvar=1.432421357457426 Phases=1 yearly=res_kw_431_pu

New Load.load_p1ulv3872_2 conn=wye bus1=p1ulv3872.2 kV=0.12 Vminpu=0.8 Vmaxpu=1.2 model=1 kW=3.2614858144948595 kvar=1.432421357457426 Phases=1 yearly=res_kw_431_pu

New Load.load_p1ulv3873_1 conn=wye bus1=p1ulv3873.1 kV=0.12 Vminpu=0.8 Vmaxpu=1.2 model=1 kW=0.17638855280953816 kvar=0.11785766630597205 Phases=1 yearly=res_kw_1229_pu

New Load.load_p1ulv3873_2 conn=wye bus1=p1ulv3873.2 kV=0.12 Vminpu=0.8 Vmaxpu=1.2 model=1 kW=0.17638855280953816 kvar=0.11785766630597205 Phases=1 yearly=res_kw_1229_pu

New Load.load_p1ulv3874_1 conn=wye bus1=p1ulv3874.1 kV=0.12 Vminpu=0.8 Vmaxpu=1.2 model=1 kW=4.255303740900178 kvar=1.3788619382740643 Phases=1 yearly=res_kw_332_pu

New Load.load_p1ulv3874_2 conn=wye bus1=p1ulv3874.2 kV=0.12 Vminpu=0.8 Vmaxpu=1.2 model=1 kW=4.255303740900178 kvar=1.3788619382740643 Phases=1 yearly=res_kw_332_pu

New Load.load_p1ulv3875_1 conn=wye bus1=p1ulv3875.1 kV=0.12 Vminpu=0.8 Vmaxpu=1.2 model=1 kW=4.255303740900178 kvar=1.3788619382740643 Phases=1 yearly=res_kw_332_pu

New Load.load_p1ulv3875_2 conn=wye bus1=p1ulv3875.2 kV=0.12 Vminpu=0.8 Vmaxpu=1.2 model=1 kW=4.255303740900178 kvar=1.3788619382740643 Phases=1 yearly=res_kw_332_pu

New Load.load_p1ulv3876_1 conn=wye bus1=p1ulv3876.1 kV=0.12 Vminpu=0.8 Vmaxpu=1.2 model=1 kW=0.17638855280953816 kvar=0.11785766630597205 Phases=1 yearly=res_kw_1229_pu

New Load.load_p1ulv3876_2 conn=wye bus1=p1ulv3876.2 kV=0.12 Vminpu=0.8 Vmaxpu=1.2 model=1 kW=0.17638855280953816 kvar=0.11785766630597205 Phases=1 yearly=res_kw_1229_pu

New Load.load_p1ulv3877_1 conn=wye bus1=p1ulv3877.1 kV=0.12 Vminpu=0.8 Vmaxpu=1.2 model=1 kW=3.2614858144948595 kvar=1.432421357457426 Phases=1 yearly=res_kw_431_pu

New Load.load_p1ulv3877_2 conn=wye bus1=p1ulv3877.2 kV=0.12 Vminpu=0.8 Vmaxpu=1.2 model=1 kW=3.2614858144948595 kvar=1.432421357457426 Phases=1 yearly=res_kw_431_pu

New Load.load_p1ulv3878_1 conn=wye bus1=p1ulv3878.1 kV=0.12 Vminpu=0.8 Vmaxpu=1.2 model=1 kW=3.2614858144948595 kvar=1.432421357457426 Phases=1 yearly=res_kw_431_pu

New Load.load_p1ulv3878_2 conn=wye bus1=p1ulv3878.2 kV=0.12 Vminpu=0.8 Vmaxpu=1.2 model=1 kW=3.2614858144948595 kvar=1.432421357457426 Phases=1 yearly=res_kw_431_pu

New Load.load_p1ulv3879_1 conn=wye bus1=p1ulv3879.1 kV=0.12 Vminpu=0.8 Vmaxpu=1.2 model=1 kW=2.3700113203165794 kvar=1.0419328311463634 Phases=1 yearly=res_kw_327_pu

New Load.load_p1ulv3879_2 conn=wye bus1=p1ulv3879.2 kV=0.12 Vminpu=0.8 Vmaxpu=1.2 model=1 kW=2.3700113203165794 kvar=1.0419328311463634 Phases=1 yearly=res_kw_327_pu

New Load.load_p1ulv3880_1 conn=wye bus1=p1ulv3880.1 kV=0.12 Vminpu=0.8 Vmaxpu=1.2 model=1 kW=3.2614858144948595 kvar=1.432421357457426 Phases=1 yearly=res_kw_431_pu

New Load.load_p1ulv3880_2 conn=wye bus1=p1ulv3880.2 kV=0.12 Vminpu=0.8 Vmaxpu=1.2 model=1 kW=3.2614858144948595 kvar=1.432421357457426 Phases=1 yearly=res_kw_431_pu

New Load.load_p1ulv3881_1 conn=wye bus1=p1ulv3881.1 kV=0.12 Vminpu=0.8 Vmaxpu=1.2 model=1 kW=3.2614858144948595 kvar=1.432421357457426 Phases=1 yearly=res_kw_431_pu

New Load.load_p1ulv3881_2 conn=wye bus1=p1ulv3881.2 kV=0.12 Vminpu=0.8 Vmaxpu=1.2 model=1 kW=3.2614858144948595 kvar=1.432421357457426 Phases=1 yearly=res_kw_431_pu

New Load.load_p1ulv3882_1 conn=wye bus1=p1ulv3882.1 kV=0.12 Vminpu=0.8 Vmaxpu=1.2 model=1 kW=4.255303740900178 kvar=1.3788619382740643 Phases=1 yearly=res_kw_332_pu

New Load.load_p1ulv3882_2 conn=wye bus1=p1ulv3882.2 kV=0.12 Vminpu=0.8 Vmaxpu=1.2 model=1 kW=4.255303740900178 kvar=1.3788619382740643 Phases=1 yearly=res_kw_332_pu

New Load.load_p1ulv3883_1 conn=wye bus1=p1ulv3883.1 kV=0.12 Vminpu=0.8 Vmaxpu=1.2 model=1 kW=4.255303740900178 kvar=1.3788619382740643 Phases=1 yearly=res_kw_332_pu

New Load.load_p1ulv3883_2 conn=wye bus1=p1ulv3883.2 kV=0.12 Vminpu=0.8 Vmaxpu=1.2 model=1 kW=4.255303740900178 kvar=1.3788619382740643 Phases=1 yearly=res_kw_332_pu

New Load.load_p1ulv3884_1 conn=wye bus1=p1ulv3884.1 kV=0.12 Vminpu=0.8 Vmaxpu=1.2 model=1 kW=2.3298924011300017 kvar=0.388795313922141 Phases=1 yearly=res_kw_41_pu

New Load.load_p1ulv3884_2 conn=wye bus1=p1ulv3884.2 kV=0.12 Vminpu=0.8 Vmaxpu=1.2 model=1 kW=2.3298924011300017 kvar=0.388795313922141 Phases=1 yearly=res_kw_41_pu

New Load.load_p1ulv3885_1 conn=wye bus1=p1ulv3885.1 kV=0.12 Vminpu=0.8 Vmaxpu=1.2 model=1 kW=2.3298924011300017 kvar=0.388795313922141 Phases=1 yearly=res_kw_41_pu

New Load.load_p1ulv3885_2 conn=wye bus1=p1ulv3885.2 kV=0.12 Vminpu=0.8 Vmaxpu=1.2 model=1 kW=2.3298924011300017 kvar=0.388795313922141 Phases=1 yearly=res_kw_41_pu

New Load.load_p1ulv3886_1 conn=wye bus1=p1ulv3886.1 kV=0.12 Vminpu=0.8 Vmaxpu=1.2 model=1 kW=2.3298924011300017 kvar=0.388795313922141 Phases=1 yearly=res_kw_41_pu

New Load.load_p1ulv3886_2 conn=wye bus1=p1ulv3886.2 kV=0.12 Vminpu=0.8 Vmaxpu=1.2 model=1 kW=2.3298924011300017 kvar=0.388795313922141 Phases=1 yearly=res_kw_41_pu

New Load.load_p1ulv3887_1 conn=wye bus1=p1ulv3887.1 kV=0.12 Vminpu=0.8 Vmaxpu=1.2 model=1 kW=2.3700113203165794 kvar=1.0419328311463634 Phases=1 yearly=res_kw_327_pu

New Load.load_p1ulv3887_2 conn=wye bus1=p1ulv3887.2 kV=0.12 Vminpu=0.8 Vmaxpu=1.2 model=1 kW=2.3700113203165794 kvar=1.0419328311463634 Phases=1 yearly=res_kw_327_pu

New Load.load_p1ulv3888_1 conn=wye bus1=p1ulv3888.1 kV=0.12 Vminpu=0.8 Vmaxpu=1.2 model=1 kW=3.2614858144948595 kvar=1.432421357457426 Phases=1 yearly=res_kw_431_pu

New Load.load_p1ulv3888_2 conn=wye bus1=p1ulv3888.2 kV=0.12 Vminpu=0.8 Vmaxpu=1.2 model=1 kW=3.2614858144948595 kvar=1.432421357457426 Phases=1 yearly=res_kw_431_pu

New Load.load_p1ulv3890_1 conn=wye bus1=p1ulv3890.1 kV=0.12 Vminpu=0.8 Vmaxpu=1.2 model=1 kW=3.2614858144948595 kvar=1.432421357457426 Phases=1 yearly=res_kw_431_pu

New Load.load_p1ulv3890_2 conn=wye bus1=p1ulv3890.2 kV=0.12 Vminpu=0.8 Vmaxpu=1.2 model=1 kW=3.2614858144948595 kvar=1.432421357457426 Phases=1 yearly=res_kw_431_pu

New Load.load_p1ulv3891_1 conn=wye bus1=p1ulv3891.1 kV=0.12 Vminpu=0.8 Vmaxpu=1.2 model=1 kW=3.2614858144948595 kvar=1.432421357457426 Phases=1 yearly=res_kw_431_pu

New Load.load_p1ulv3891_2 conn=wye bus1=p1ulv3891.2 kV=0.12 Vminpu=0.8 Vmaxpu=1.2 model=1 kW=3.2614858144948595 kvar=1.432421357457426 Phases=1 yearly=res_kw_431_pu

New Load.load_p1ulv3892_1 conn=wye bus1=p1ulv3892.1 kV=0.12 Vminpu=0.8 Vmaxpu=1.2 model=1 kW=3.2614858144948595 kvar=1.432421357457426 Phases=1 yearly=res_kw_431_pu

New Load.load_p1ulv3892_2 conn=wye bus1=p1ulv3892.2 kV=0.12 Vminpu=0.8 Vmaxpu=1.2 model=1 kW=3.2614858144948595 kvar=1.432421357457426 Phases=1 yearly=res_kw_431_pu

New Load.load_p1ulv3893_1 conn=wye bus1=p1ulv3893.1 kV=0.12 Vminpu=0.8 Vmaxpu=1.2 model=1 kW=3.2614858144948595 kvar=1.432421357457426 Phases=1 yearly=res_kw_431_pu

New Load.load_p1ulv3893_2 conn=wye bus1=p1ulv3893.2 kV=0.12 Vminpu=0.8 Vmaxpu=1.2 model=1 kW=3.2614858144948595 kvar=1.432421357457426 Phases=1 yearly=res_kw_431_pu

New Load.load_p1ulv3894_1 conn=wye bus1=p1ulv3894.1 kV=0.12 Vminpu=0.8 Vmaxpu=1.2 model=1 kW=3.2614858144948595 kvar=1.432421357457426 Phases=1 yearly=res_kw_431_pu

New Load.load_p1ulv3894_2 conn=wye bus1=p1ulv3894.2 kV=0.12 Vminpu=0.8 Vmaxpu=1.2 model=1 kW=3.2614858144948595 kvar=1.432421357457426 Phases=1 yearly=res_kw_431_pu

New Load.load_p1ulv3895_1 conn=wye bus1=p1ulv3895.1 kV=0.12 Vminpu=0.8 Vmaxpu=1.2 model=1 kW=3.2614858144948595 kvar=1.432421357457426 Phases=1 yearly=res_kw_431_pu

New Load.load_p1ulv3895_2 conn=wye bus1=p1ulv3895.2 kV=0.12 Vminpu=0.8 Vmaxpu=1.2 model=1 kW=3.2614858144948595 kvar=1.432421357457426 Phases=1 yearly=res_kw_431_pu

New Load.load_p1ulv3896_1 conn=wye bus1=p1ulv3896.1 kV=0.12 Vminpu=0.8 Vmaxpu=1.2 model=1 kW=4.255303740900178 kvar=1.3788619382740643 Phases=1 yearly=res_kw_332_pu

New Load.load_p1ulv3896_2 conn=wye bus1=p1ulv3896.2 kV=0.12 Vminpu=0.8 Vmaxpu=1.2 model=1 kW=4.255303740900178 kvar=1.3788619382740643 Phases=1 yearly=res_kw_332_pu

New Load.load_p1ulv3897_1 conn=wye bus1=p1ulv3897.1 kV=0.12 Vminpu=0.8 Vmaxpu=1.2 model=1 kW=2.3700113203165794 kvar=1.0419328311463634 Phases=1 yearly=res_kw_327_pu

New Load.load_p1ulv3897_2 conn=wye bus1=p1ulv3897.2 kV=0.12 Vminpu=0.8 Vmaxpu=1.2 model=1 kW=2.3700113203165794 kvar=1.0419328311463634 Phases=1 yearly=res_kw_327_pu

New Load.load_p1ulv3898_1 conn=wye bus1=p1ulv3898.1 kV=0.12 Vminpu=0.8 Vmaxpu=1.2 model=1 kW=3.2614858144948595 kvar=1.432421357457426 Phases=1 yearly=res_kw_431_pu

New Load.load_p1ulv3898_2 conn=wye bus1=p1ulv3898.2 kV=0.12 Vminpu=0.8 Vmaxpu=1.2 model=1 kW=3.2614858144948595 kvar=1.432421357457426 Phases=1 yearly=res_kw_431_pu

New Load.load_p1ulv3899_1 conn=wye bus1=p1ulv3899.1 kV=0.12 Vminpu=0.8 Vmaxpu=1.2 model=1 kW=4.255303740900178 kvar=1.3788619382740643 Phases=1 yearly=res_kw_332_pu

New Load.load_p1ulv3899_2 conn=wye bus1=p1ulv3899.2 kV=0.12 Vminpu=0.8 Vmaxpu=1.2 model=1 kW=4.255303740900178 kvar=1.3788619382740643 Phases=1 yearly=res_kw_332_pu

New Load.load_p1ulv3900_1 conn=wye bus1=p1ulv3900.1 kV=0.12 Vminpu=0.8 Vmaxpu=1.2 model=1 kW=3.2614858144948595 kvar=1.432421357457426 Phases=1 yearly=res_kw_431_pu

New Load.load_p1ulv3900_2 conn=wye bus1=p1ulv3900.2 kV=0.12 Vminpu=0.8 Vmaxpu=1.2 model=1 kW=3.2614858144948595 kvar=1.432421357457426 Phases=1 yearly=res_kw_431_pu

New Load.load_p1ulv3901_1 conn=wye bus1=p1ulv3901.1 kV=0.12 Vminpu=0.8 Vmaxpu=1.2 model=1 kW=3.2614858144948595 kvar=1.432421357457426 Phases=1 yearly=res_kw_431_pu

New Load.load_p1ulv3901_2 conn=wye bus1=p1ulv3901.2 kV=0.12 Vminpu=0.8 Vmaxpu=1.2 model=1 kW=3.2614858144948595 kvar=1.432421357457426 Phases=1 yearly=res_kw_431_pu

New Load.load_p1ulv3902_1 conn=wye bus1=p1ulv3902.1 kV=0.12 Vminpu=0.8 Vmaxpu=1.2 model=1 kW=3.2614858144948595 kvar=1.432421357457426 Phases=1 yearly=res_kw_431_pu

New Load.load_p1ulv3902_2 conn=wye bus1=p1ulv3902.2 kV=0.12 Vminpu=0.8 Vmaxpu=1.2 model=1 kW=3.2614858144948595 kvar=1.432421357457426 Phases=1 yearly=res_kw_431_pu

New Load.load_p1ulv3903_1 conn=wye bus1=p1ulv3903.1 kV=0.12 Vminpu=0.8 Vmaxpu=1.2 model=1 kW=4.255303740900178 kvar=1.3788619382740643 Phases=1 yearly=res_kw_332_pu

New Load.load_p1ulv3903_2 conn=wye bus1=p1ulv3903.2 kV=0.12 Vminpu=0.8 Vmaxpu=1.2 model=1 kW=4.255303740900178 kvar=1.3788619382740643 Phases=1 yearly=res_kw_332_pu

New Load.load_p1ulv3904_1 conn=wye bus1=p1ulv3900.1 kV=0.12 Vminpu=0.8 Vmaxpu=1.2 model=1 kW=0.17638855280953816 kvar=0.11785766630597205 Phases=1 yearly=res_kw_1229_pu

New Load.load_p1ulv3904_2 conn=wye bus1=p1ulv3900.2 kV=0.12 Vminpu=0.8 Vmaxpu=1.2 model=1 kW=0.17638855280953816 kvar=0.11785766630597205 Phases=1 yearly=res_kw_1229_pu

New Load.load_p1ulv3905_1 conn=wye bus1=p1ulv3905.1 kV=0.12 Vminpu=0.8 Vmaxpu=1.2 model=1 kW=4.255303740900178 kvar=1.3788619382740643 Phases=1 yearly=res_kw_332_pu

New Load.load_p1ulv3905_2 conn=wye bus1=p1ulv3905.2 kV=0.12 Vminpu=0.8 Vmaxpu=1.2 model=1 kW=4.255303740900178 kvar=1.3788619382740643 Phases=1 yearly=res_kw_332_pu

New Load.load_p1ulv3906_1 conn=wye bus1=p1ulv3906.1 kV=0.12 Vminpu=0.8 Vmaxpu=1.2 model=1 kW=4.255303740900178 kvar=1.3788619382740643 Phases=1 yearly=res_kw_332_pu

New Load.load_p1ulv3906_2 conn=wye bus1=p1ulv3906.2 kV=0.12 Vminpu=0.8 Vmaxpu=1.2 model=1 kW=4.255303740900178 kvar=1.3788619382740643 Phases=1 yearly=res_kw_332_pu

New Load.load_p1ulv3907_1 conn=wye bus1=p1ulv3907.1 kV=0.12 Vminpu=0.8 Vmaxpu=1.2 model=1 kW=4.255303740900178 kvar=1.3788619382740643 Phases=1 yearly=res_kw_332_pu

New Load.load_p1ulv3907_2 conn=wye bus1=p1ulv3907.2 kV=0.12 Vminpu=0.8 Vmaxpu=1.2 model=1 kW=4.255303740900178 kvar=1.3788619382740643 Phases=1 yearly=res_kw_332_pu

New Load.load_p1ulv3908_1 conn=wye bus1=p1ulv3908.1 kV=0.12 Vminpu=0.8 Vmaxpu=1.2 model=1 kW=2.3700113203165794 kvar=1.0419328311463634 Phases=1 yearly=res_kw_327_pu

New Load.load_p1ulv3908_2 conn=wye bus1=p1ulv3908.2 kV=0.12 Vminpu=0.8 Vmaxpu=1.2 model=1 kW=2.3700113203165794 kvar=1.0419328311463634 Phases=1 yearly=res_kw_327_pu

New Load.load_p1ulv3909_1 conn=wye bus1=p1ulv3909.1 kV=0.12 Vminpu=0.8 Vmaxpu=1.2 model=1 kW=3.2614858144948595 kvar=1.432421357457426 Phases=1 yearly=res_kw_431_pu

New Load.load_p1ulv3909_2 conn=wye bus1=p1ulv3909.2 kV=0.12 Vminpu=0.8 Vmaxpu=1.2 model=1 kW=3.2614858144948595 kvar=1.432421357457426 Phases=1 yearly=res_kw_431_pu

New Load.load_p1ulv3910_1 conn=wye bus1=p1ulv3910.1 kV=0.12 Vminpu=0.8 Vmaxpu=1.2 model=1 kW=0.17638855280953816 kvar=0.11785766630597205 Phases=1 yearly=res_kw_1229_pu

New Load.load_p1ulv3910_2 conn=wye bus1=p1ulv3910.2 kV=0.12 Vminpu=0.8 Vmaxpu=1.2 model=1 kW=0.17638855280953816 kvar=0.11785766630597205 Phases=1 yearly=res_kw_1229_pu

New Load.load_p1ulv3911_1 conn=wye bus1=p1ulv3911.1 kV=0.12 Vminpu=0.8 Vmaxpu=1.2 model=1 kW=4.255303740900178 kvar=1.3788619382740643 Phases=1 yearly=res_kw_332_pu

New Load.load_p1ulv3911_2 conn=wye bus1=p1ulv3911.2 kV=0.12 Vminpu=0.8 Vmaxpu=1.2 model=1 kW=4.255303740900178 kvar=1.3788619382740643 Phases=1 yearly=res_kw_332_pu

New Load.load_p1ulv3912_1 conn=wye bus1=p1ulv3912.1 kV=0.12 Vminpu=0.8 Vmaxpu=1.2 model=1 kW=2.3298924011300017 kvar=0.388795313922141 Phases=1 yearly=res_kw_41_pu

New Load.load_p1ulv3912_2 conn=wye bus1=p1ulv3912.2 kV=0.12 Vminpu=0.8 Vmaxpu=1.2 model=1 kW=2.3298924011300017 kvar=0.388795313922141 Phases=1 yearly=res_kw_41_pu

New Load.load_p1ulv3913_1 conn=wye bus1=p1ulv3913.1 kV=0.12 Vminpu=0.8 Vmaxpu=1.2 model=1 kW=3.2614858144948595 kvar=1.432421357457426 Phases=1 yearly=res_kw_431_pu

New Load.load_p1ulv3913_2 conn=wye bus1=p1ulv3913.2 kV=0.12 Vminpu=0.8 Vmaxpu=1.2 model=1 kW=3.2614858144948595 kvar=1.432421357457426 Phases=1 yearly=res_kw_431_pu

New Load.load_p1ulv3914_1 conn=wye bus1=p1ulv3914.1 kV=0.12 Vminpu=0.8 Vmaxpu=1.2 model=1 kW=4.255303740900178 kvar=1.3788619382740643 Phases=1 yearly=res_kw_332_pu

New Load.load_p1ulv3914_2 conn=wye bus1=p1ulv3914.2 kV=0.12 Vminpu=0.8 Vmaxpu=1.2 model=1 kW=4.255303740900178 kvar=1.3788619382740643 Phases=1 yearly=res_kw_332_pu

New Load.load_p1ulv3915_1 conn=wye bus1=p1ulv3915.1 kV=0.12 Vminpu=0.8 Vmaxpu=1.2 model=1 kW=3.2614858144948595 kvar=1.432421357457426 Phases=1 yearly=res_kw_431_pu

New Load.load_p1ulv3915_2 conn=wye bus1=p1ulv3915.2 kV=0.12 Vminpu=0.8 Vmaxpu=1.2 model=1 kW=3.2614858144948595 kvar=1.432421357457426 Phases=1 yearly=res_kw_431_pu

New Load.load_p1ulv3916_1 conn=wye bus1=p1ulv3916.1 kV=0.12 Vminpu=0.8 Vmaxpu=1.2 model=1 kW=0.17638855280953816 kvar=0.11785766630597205 Phases=1 yearly=res_kw_1229_pu

New Load.load_p1ulv3916_2 conn=wye bus1=p1ulv3916.2 kV=0.12 Vminpu=0.8 Vmaxpu=1.2 model=1 kW=0.17638855280953816 kvar=0.11785766630597205 Phases=1 yearly=res_kw_1229_pu

New Load.load_p1ulv3917_1 conn=wye bus1=p1ulv3917.1 kV=0.12 Vminpu=0.8 Vmaxpu=1.2 model=1 kW=0.17638855280953816 kvar=0.11785766630597205 Phases=1 yearly=res_kw_1229_pu

New Load.load_p1ulv3917_2 conn=wye bus1=p1ulv3917.2 kV=0.12 Vminpu=0.8 Vmaxpu=1.2 model=1 kW=0.17638855280953816 kvar=0.11785766630597205 Phases=1 yearly=res_kw_1229_pu

New Load.load_p1ulv3918_1 conn=wye bus1=p1ulv3918.1 kV=0.12 Vminpu=0.8 Vmaxpu=1.2 model=1 kW=4.255303740900178 kvar=1.3788619382740643 Phases=1 yearly=res_kw_332_pu

New Load.load_p1ulv3918_2 conn=wye bus1=p1ulv3918.2 kV=0.12 Vminpu=0.8 Vmaxpu=1.2 model=1 kW=4.255303740900178 kvar=1.3788619382740643 Phases=1 yearly=res_kw_332_pu

New Load.load_p1ulv3919_1 conn=wye bus1=p1ulv3919.1 kV=0.12 Vminpu=0.8 Vmaxpu=1.2 model=1 kW=0.17638855280953816 kvar=0.11785766630597205 Phases=1 yearly=res_kw_1229_pu

New Load.load_p1ulv3919_2 conn=wye bus1=p1ulv3919.2 kV=0.12 Vminpu=0.8 Vmaxpu=1.2 model=1 kW=0.17638855280953816 kvar=0.11785766630597205 Phases=1 yearly=res_kw_1229_pu

New Load.load_p1ulv3920_1 conn=wye bus1=p1ulv3919.1 kV=0.12 Vminpu=0.8 Vmaxpu=1.2 model=1 kW=3.2614858144948595 kvar=1.432421357457426 Phases=1 yearly=res_kw_431_pu

New Load.load_p1ulv3920_2 conn=wye bus1=p1ulv3919.2 kV=0.12 Vminpu=0.8 Vmaxpu=1.2 model=1 kW=3.2614858144948595 kvar=1.432421357457426 Phases=1 yearly=res_kw_431_pu

New Load.load_p1ulv3930_1 conn=wye bus1=p1ulv3930.1 kV=0.12 Vminpu=0.8 Vmaxpu=1.2 model=1 kW=3.2614858144948595 kvar=1.432421357457426 Phases=1 yearly=res_kw_431_pu

New Load.load_p1ulv3930_2 conn=wye bus1=p1ulv3930.2 kV=0.12 Vminpu=0.8 Vmaxpu=1.2 model=1 kW=3.2614858144948595 kvar=1.432421357457426 Phases=1 yearly=res_kw_431_pu

New Load.load_p1ulv3932_1 conn=wye bus1=p1ulv3932.1 kV=0.12 Vminpu=0.8 Vmaxpu=1.2 model=1 kW=3.2614858144948595 kvar=1.432421357457426 Phases=1 yearly=res_kw_431_pu

New Load.load_p1ulv3932_2 conn=wye bus1=p1ulv3932.2 kV=0.12 Vminpu=0.8 Vmaxpu=1.2 model=1 kW=3.2614858144948595 kvar=1.432421357457426 Phases=1 yearly=res_kw_431_pu

New Load.load_p1ulv3933_1 conn=wye bus1=p1ulv3933.1 kV=0.12 Vminpu=0.8 Vmaxpu=1.2 model=1 kW=3.2614858144948595 kvar=1.432421357457426 Phases=1 yearly=res_kw_431_pu

New Load.load_p1ulv3933_2 conn=wye bus1=p1ulv3933.2 kV=0.12 Vminpu=0.8 Vmaxpu=1.2 model=1 kW=3.2614858144948595 kvar=1.432421357457426 Phases=1 yearly=res_kw_431_pu

New Load.load_p1ulv3934_1 conn=wye bus1=p1ulv3934.1 kV=0.12 Vminpu=0.8 Vmaxpu=1.2 model=1 kW=0.17638855280953816 kvar=0.11785766630597205 Phases=1 yearly=res_kw_1229_pu

New Load.load_p1ulv3934_2 conn=wye bus1=p1ulv3934.2 kV=0.12 Vminpu=0.8 Vmaxpu=1.2 model=1 kW=0.17638855280953816 kvar=0.11785766630597205 Phases=1 yearly=res_kw_1229_pu

New Load.load_p1ulv3935_1 conn=wye bus1=p1ulv3935.1 kV=0.12 Vminpu=0.8 Vmaxpu=1.2 model=1 kW=2.3700113203165794 kvar=1.0419328311463634 Phases=1 yearly=res_kw_327_pu

New Load.load_p1ulv3935_2 conn=wye bus1=p1ulv3935.2 kV=0.12 Vminpu=0.8 Vmaxpu=1.2 model=1 kW=2.3700113203165794 kvar=1.0419328311463634 Phases=1 yearly=res_kw_327_pu

New Load.load_p1ulv3936_1 conn=wye bus1=p1ulv3935.1 kV=0.12 Vminpu=0.8 Vmaxpu=1.2 model=1 kW=3.2614858144948595 kvar=1.432421357457426 Phases=1 yearly=res_kw_431_pu

New Load.load_p1ulv3936_2 conn=wye bus1=p1ulv3935.2 kV=0.12 Vminpu=0.8 Vmaxpu=1.2 model=1 kW=3.2614858144948595 kvar=1.432421357457426 Phases=1 yearly=res_kw_431_pu

New Load.load_p1ulv3937_1 conn=wye bus1=p1ulv3937.1 kV=0.12 Vminpu=0.8 Vmaxpu=1.2 model=1 kW=4.255303740900178 kvar=1.3788619382740643 Phases=1 yearly=res_kw_332_pu

New Load.load_p1ulv3937_2 conn=wye bus1=p1ulv3937.2 kV=0.12 Vminpu=0.8 Vmaxpu=1.2 model=1 kW=4.255303740900178 kvar=1.3788619382740643 Phases=1 yearly=res_kw_332_pu

New Load.load_p1ulv3938_1 conn=wye bus1=p1ulv3938.1 kV=0.12 Vminpu=0.8 Vmaxpu=1.2 model=1 kW=3.2614858144948595 kvar=1.432421357457426 Phases=1 yearly=res_kw_431_pu

New Load.load_p1ulv3938_2 conn=wye bus1=p1ulv3938.2 kV=0.12 Vminpu=0.8 Vmaxpu=1.2 model=1 kW=3.2614858144948595 kvar=1.432421357457426 Phases=1 yearly=res_kw_431_pu

New Load.load_p1ulv3939_1 conn=wye bus1=p1ulv3939.1 kV=0.12 Vminpu=0.8 Vmaxpu=1.2 model=1 kW=0.17638855280953816 kvar=0.11785766630597205 Phases=1 yearly=res_kw_1229_pu

New Load.load_p1ulv3939_2 conn=wye bus1=p1ulv3939.2 kV=0.12 Vminpu=0.8 Vmaxpu=1.2 model=1 kW=0.17638855280953816 kvar=0.11785766630597205 Phases=1 yearly=res_kw_1229_pu

New Load.load_p1ulv3940_1 conn=wye bus1=p1ulv3940.1 kV=0.12 Vminpu=0.8 Vmaxpu=1.2 model=1 kW=4.04330412347979 kvar=1.1447656790699707 Phases=1 yearly=res_kw_307_pu

New Load.load_p1ulv3940_2 conn=wye bus1=p1ulv3940.2 kV=0.12 Vminpu=0.8 Vmaxpu=1.2 model=1 kW=4.04330412347979 kvar=1.1447656790699707 Phases=1 yearly=res_kw_307_pu

New Load.load_p1ulv3941_1 conn=wye bus1=p1ulv3941.1 kV=0.12 Vminpu=0.8 Vmaxpu=1.2 model=1 kW=3.2614858144948595 kvar=1.432421357457426 Phases=1 yearly=res_kw_431_pu

New Load.load_p1ulv3941_2 conn=wye bus1=p1ulv3941.2 kV=0.12 Vminpu=0.8 Vmaxpu=1.2 model=1 kW=3.2614858144948595 kvar=1.432421357457426 Phases=1 yearly=res_kw_431_pu

New Load.load_p1ulv3942_1 conn=wye bus1=p1ulv3942.1 kV=0.12 Vminpu=0.8 Vmaxpu=1.2 model=1 kW=0.17638855280953816 kvar=0.11785766630597205 Phases=1 yearly=res_kw_1229_pu

New Load.load_p1ulv3942_2 conn=wye bus1=p1ulv3942.2 kV=0.12 Vminpu=0.8 Vmaxpu=1.2 model=1 kW=0.17638855280953816 kvar=0.11785766630597205 Phases=1 yearly=res_kw_1229_pu

New Load.load_p1ulv3943_1 conn=wye bus1=p1ulv3943.1 kV=0.12 Vminpu=0.8 Vmaxpu=1.2 model=1 kW=3.2614858144948595 kvar=1.432421357457426 Phases=1 yearly=res_kw_431_pu

New Load.load_p1ulv3943_2 conn=wye bus1=p1ulv3943.2 kV=0.12 Vminpu=0.8 Vmaxpu=1.2 model=1 kW=3.2614858144948595 kvar=1.432421357457426 Phases=1 yearly=res_kw_431_pu

New Load.load_p1ulv3944_1 conn=wye bus1=p1ulv3944.1 kV=0.12 Vminpu=0.8 Vmaxpu=1.2 model=1 kW=2.3700113203165794 kvar=1.0419328311463634 Phases=1 yearly=res_kw_327_pu

New Load.load_p1ulv3944_2 conn=wye bus1=p1ulv3944.2 kV=0.12 Vminpu=0.8 Vmaxpu=1.2 model=1 kW=2.3700113203165794 kvar=1.0419328311463634 Phases=1 yearly=res_kw_327_pu

New Load.load_p1ulv3945_1 conn=wye bus1=p1ulv3945.1 kV=0.12 Vminpu=0.8 Vmaxpu=1.2 model=1 kW=3.2614858144948595 kvar=1.432421357457426 Phases=1 yearly=res_kw_431_pu

New Load.load_p1ulv3945_2 conn=wye bus1=p1ulv3945.2 kV=0.12 Vminpu=0.8 Vmaxpu=1.2 model=1 kW=3.2614858144948595 kvar=1.432421357457426 Phases=1 yearly=res_kw_431_pu

New Load.load_p1ulv3946_1 conn=wye bus1=p1ulv3946.1 kV=0.12 Vminpu=0.8 Vmaxpu=1.2 model=1 kW=3.2614858144948595 kvar=1.432421357457426 Phases=1 yearly=res_kw_431_pu

New Load.load_p1ulv3946_2 conn=wye bus1=p1ulv3946.2 kV=0.12 Vminpu=0.8 Vmaxpu=1.2 model=1 kW=3.2614858144948595 kvar=1.432421357457426 Phases=1 yearly=res_kw_431_pu

New Load.load_p1ulv3947_1 conn=wye bus1=p1ulv3947.1 kV=0.12 Vminpu=0.8 Vmaxpu=1.2 model=1 kW=4.255303740900178 kvar=1.3788619382740643 Phases=1 yearly=res_kw_332_pu

New Load.load_p1ulv3947_2 conn=wye bus1=p1ulv3947.2 kV=0.12 Vminpu=0.8 Vmaxpu=1.2 model=1 kW=4.255303740900178 kvar=1.3788619382740643 Phases=1 yearly=res_kw_332_pu

New Load.load_p1ulv3948_1 conn=wye bus1=p1ulv3948.1 kV=0.12 Vminpu=0.8 Vmaxpu=1.2 model=1 kW=1.2112005619473556 kvar=0.3318024399989204 Phases=1 yearly=res_kw_1194_pu

New Load.load_p1ulv3948_2 conn=wye bus1=p1ulv3948.2 kV=0.12 Vminpu=0.8 Vmaxpu=1.2 model=1 kW=1.2112005619473556 kvar=0.3318024399989204 Phases=1 yearly=res_kw_1194_pu

New Load.load_p1ulv3949_1 conn=wye bus1=p1ulv3949.1 kV=0.12 Vminpu=0.8 Vmaxpu=1.2 model=1 kW=3.2614858144948595 kvar=1.432421357457426 Phases=1 yearly=res_kw_431_pu

New Load.load_p1ulv3949_2 conn=wye bus1=p1ulv3949.2 kV=0.12 Vminpu=0.8 Vmaxpu=1.2 model=1 kW=3.2614858144948595 kvar=1.432421357457426 Phases=1 yearly=res_kw_431_pu

New Load.load_p1ulv3950_1 conn=wye bus1=p1ulv3950.1 kV=0.12 Vminpu=0.8 Vmaxpu=1.2 model=1 kW=3.2614858144948595 kvar=1.432421357457426 Phases=1 yearly=res_kw_431_pu

New Load.load_p1ulv3950_2 conn=wye bus1=p1ulv3950.2 kV=0.12 Vminpu=0.8 Vmaxpu=1.2 model=1 kW=3.2614858144948595 kvar=1.432421357457426 Phases=1 yearly=res_kw_431_pu

New Load.load_p1ulv3951_1 conn=wye bus1=p1ulv3951.1 kV=0.12 Vminpu=0.8 Vmaxpu=1.2 model=1 kW=0.17638855280953816 kvar=0.11785766630597205 Phases=1 yearly=res_kw_1229_pu

New Load.load_p1ulv3951_2 conn=wye bus1=p1ulv3951.2 kV=0.12 Vminpu=0.8 Vmaxpu=1.2 model=1 kW=0.17638855280953816 kvar=0.11785766630597205 Phases=1 yearly=res_kw_1229_pu

New Load.load_p1ulv3952_1 conn=wye bus1=p1ulv3952.1 kV=0.12 Vminpu=0.8 Vmaxpu=1.2 model=1 kW=0.17638855280953816 kvar=0.11785766630597205 Phases=1 yearly=res_kw_1229_pu

New Load.load_p1ulv3952_2 conn=wye bus1=p1ulv3952.2 kV=0.12 Vminpu=0.8 Vmaxpu=1.2 model=1 kW=0.17638855280953816 kvar=0.11785766630597205 Phases=1 yearly=res_kw_1229_pu

New Load.load_p1ulv3953_1 conn=wye bus1=p1ulv3953.1 kV=0.12 Vminpu=0.8 Vmaxpu=1.2 model=1 kW=3.2614858144948595 kvar=1.432421357457426 Phases=1 yearly=res_kw_431_pu

New Load.load_p1ulv3953_2 conn=wye bus1=p1ulv3953.2 kV=0.12 Vminpu=0.8 Vmaxpu=1.2 model=1 kW=3.2614858144948595 kvar=1.432421357457426 Phases=1 yearly=res_kw_431_pu

New Load.load_p1ulv3954_1 conn=wye bus1=p1ulv3954.1 kV=0.12 Vminpu=0.8 Vmaxpu=1.2 model=1 kW=0.17638855280953816 kvar=0.11785766630597205 Phases=1 yearly=res_kw_1229_pu

New Load.load_p1ulv3954_2 conn=wye bus1=p1ulv3954.2 kV=0.12 Vminpu=0.8 Vmaxpu=1.2 model=1 kW=0.17638855280953816 kvar=0.11785766630597205 Phases=1 yearly=res_kw_1229_pu

New Load.load_p1ulv3955_1 conn=wye bus1=p1ulv3955.1 kV=0.12 Vminpu=0.8 Vmaxpu=1.2 model=1 kW=4.255303740900178 kvar=1.3788619382740643 Phases=1 yearly=res_kw_332_pu

New Load.load_p1ulv3955_2 conn=wye bus1=p1ulv3955.2 kV=0.12 Vminpu=0.8 Vmaxpu=1.2 model=1 kW=4.255303740900178 kvar=1.3788619382740643 Phases=1 yearly=res_kw_332_pu

New Load.load_p1ulv3956_1 conn=wye bus1=p1ulv3956.1 kV=0.12 Vminpu=0.8 Vmaxpu=1.2 model=1 kW=3.2614858144948595 kvar=1.432421357457426 Phases=1 yearly=res_kw_431_pu

New Load.load_p1ulv3956_2 conn=wye bus1=p1ulv3956.2 kV=0.12 Vminpu=0.8 Vmaxpu=1.2 model=1 kW=3.2614858144948595 kvar=1.432421357457426 Phases=1 yearly=res_kw_431_pu

New Load.load_p1ulv3957_1 conn=wye bus1=p1ulv3957.1 kV=0.12 Vminpu=0.8 Vmaxpu=1.2 model=1 kW=10.385223275469155 kvar=4.238948256103666 Phases=1 yearly=res_kw_146_pu

New Load.load_p1ulv3957_2 conn=wye bus1=p1ulv3957.2 kV=0.12 Vminpu=0.8 Vmaxpu=1.2 model=1 kW=10.385223275469155 kvar=4.238948256103666 Phases=1 yearly=res_kw_146_pu

New Load.load_p1ulv3958_1 conn=wye bus1=p1ulv3958.1 kV=0.12 Vminpu=0.8 Vmaxpu=1.2 model=1 kW=4.255303740900178 kvar=1.3788619382740643 Phases=1 yearly=res_kw_332_pu

New Load.load_p1ulv3958_2 conn=wye bus1=p1ulv3958.2 kV=0.12 Vminpu=0.8 Vmaxpu=1.2 model=1 kW=4.255303740900178 kvar=1.3788619382740643 Phases=1 yearly=res_kw_332_pu

New Load.load_p1ulv3959_1 conn=wye bus1=p1ulv3959.1 kV=0.12 Vminpu=0.8 Vmaxpu=1.2 model=1 kW=3.2614858144948595 kvar=1.432421357457426 Phases=1 yearly=res_kw_431_pu

New Load.load_p1ulv3959_2 conn=wye bus1=p1ulv3959.2 kV=0.12 Vminpu=0.8 Vmaxpu=1.2 model=1 kW=3.2614858144948595 kvar=1.432421357457426 Phases=1 yearly=res_kw_431_pu
