New Load.load_p1ulv3064_1 conn=wye bus1=p1ulv3064.1 kV=0.12 Vminpu=0.8 Vmaxpu=1.2 model=1 kW=8.313792741133831 kvar=0.9534382044342147 Phases=1 yearly=res_kw_53_pu

New Load.load_p1ulv3064_2 conn=wye bus1=p1ulv3064.2 kV=0.12 Vminpu=0.8 Vmaxpu=1.2 model=1 kW=8.313792741133831 kvar=0.9534382044342147 Phases=1 yearly=res_kw_53_pu

New Load.load_p1ulv3065_1 conn=wye bus1=p1ulv3065.1 kV=0.12 Vminpu=0.8 Vmaxpu=1.2 model=1 kW=7.235767165926777 kvar=2.6686267970114135 Phases=1 yearly=res_kw_652_pu

New Load.load_p1ulv3065_2 conn=wye bus1=p1ulv3065.2 kV=0.12 Vminpu=0.8 Vmaxpu=1.2 model=1 kW=7.235767165926777 kvar=2.6686267970114135 Phases=1 yearly=res_kw_652_pu

New Load.load_p1ulv3066_1 conn=wye bus1=p1ulv3066.1 kV=0.12 Vminpu=0.8 Vmaxpu=1.2 model=1 kW=4.221644888169981 kvar=1.626034048631708 Phases=1 yearly=res_kw_90_pu

New Load.load_p1ulv3066_2 conn=wye bus1=p1ulv3066.2 kV=0.12 Vminpu=0.8 Vmaxpu=1.2 model=1 kW=4.221644888169981 kvar=1.626034048631708 Phases=1 yearly=res_kw_90_pu

New Load.load_p1ulv3067_1 conn=wye bus1=p1ulv3067.1 kV=0.12 Vminpu=0.8 Vmaxpu=1.2 model=1 kW=7.235767165926777 kvar=2.6686267970114135 Phases=1 yearly=res_kw_652_pu

New Load.load_p1ulv3067_2 conn=wye bus1=p1ulv3067.2 kV=0.12 Vminpu=0.8 Vmaxpu=1.2 model=1 kW=7.235767165926777 kvar=2.6686267970114135 Phases=1 yearly=res_kw_652_pu

New Load.load_p1ulv3068_1 conn=wye bus1=p1ulv3068.1 kV=0.12 Vminpu=0.8 Vmaxpu=1.2 model=1 kW=4.221644888169981 kvar=1.626034048631708 Phases=1 yearly=res_kw_90_pu

New Load.load_p1ulv3068_2 conn=wye bus1=p1ulv3068.2 kV=0.12 Vminpu=0.8 Vmaxpu=1.2 model=1 kW=4.221644888169981 kvar=1.626034048631708 Phases=1 yearly=res_kw_90_pu

New Load.load_p1ulv3069_1 conn=wye bus1=p1ulv3069.1 kV=0.12 Vminpu=0.8 Vmaxpu=1.2 model=1 kW=5.493107438910514 kvar=1.5415823949133614 Phases=1 yearly=res_kw_1084_pu

New Load.load_p1ulv3069_2 conn=wye bus1=p1ulv3069.2 kV=0.12 Vminpu=0.8 Vmaxpu=1.2 model=1 kW=5.493107438910514 kvar=1.5415823949133614 Phases=1 yearly=res_kw_1084_pu

New Load.load_p1ulv3070_1 conn=wye bus1=p1ulv3070.1 kV=0.12 Vminpu=0.8 Vmaxpu=1.2 model=1 kW=7.235767165926777 kvar=2.6686267970114135 Phases=1 yearly=res_kw_652_pu

New Load.load_p1ulv3070_2 conn=wye bus1=p1ulv3070.2 kV=0.12 Vminpu=0.8 Vmaxpu=1.2 model=1 kW=7.235767165926777 kvar=2.6686267970114135 Phases=1 yearly=res_kw_652_pu

New Load.load_p1ulv3071_1 conn=wye bus1=p1ulv3071.1 kV=0.12 Vminpu=0.8 Vmaxpu=1.2 model=1 kW=2.252586941983099 kvar=1.0135983600233158 Phases=1 yearly=res_kw_853_pu

New Load.load_p1ulv3071_2 conn=wye bus1=p1ulv3071.2 kV=0.12 Vminpu=0.8 Vmaxpu=1.2 model=1 kW=2.252586941983099 kvar=1.0135983600233158 Phases=1 yearly=res_kw_853_pu

New Load.load_p1ulv3072_1 conn=wye bus1=p1ulv3072.1 kV=0.12 Vminpu=0.8 Vmaxpu=1.2 model=1 kW=5.493107438910514 kvar=1.5415823949133614 Phases=1 yearly=res_kw_1084_pu

New Load.load_p1ulv3072_2 conn=wye bus1=p1ulv3072.2 kV=0.12 Vminpu=0.8 Vmaxpu=1.2 model=1 kW=5.493107438910514 kvar=1.5415823949133614 Phases=1 yearly=res_kw_1084_pu

New Load.load_p1ulv3073_1 conn=wye bus1=p1ulv3073.1 kV=0.12 Vminpu=0.8 Vmaxpu=1.2 model=1 kW=5.180069985996669 kvar=1.9739256743557854 Phases=1 yearly=res_kw_945_pu

New Load.load_p1ulv3073_2 conn=wye bus1=p1ulv3073.2 kV=0.12 Vminpu=0.8 Vmaxpu=1.2 model=1 kW=5.180069985996669 kvar=1.9739256743557854 Phases=1 yearly=res_kw_945_pu

New Load.load_p1ulv3074_1 conn=wye bus1=p1ulv3074.1 kV=0.12 Vminpu=0.8 Vmaxpu=1.2 model=1 kW=7.235767165926777 kvar=2.6686267970114135 Phases=1 yearly=res_kw_652_pu

New Load.load_p1ulv3074_2 conn=wye bus1=p1ulv3074.2 kV=0.12 Vminpu=0.8 Vmaxpu=1.2 model=1 kW=7.235767165926777 kvar=2.6686267970114135 Phases=1 yearly=res_kw_652_pu

New Load.load_p1ulv3075_1 conn=wye bus1=p1ulv3075.1 kV=0.12 Vminpu=0.8 Vmaxpu=1.2 model=1 kW=7.235767165926777 kvar=2.6686267970114135 Phases=1 yearly=res_kw_652_pu

New Load.load_p1ulv3075_2 conn=wye bus1=p1ulv3075.2 kV=0.12 Vminpu=0.8 Vmaxpu=1.2 model=1 kW=7.235767165926777 kvar=2.6686267970114135 Phases=1 yearly=res_kw_652_pu

New Load.load_p1ulv3076_1 conn=wye bus1=p1ulv3076.1 kV=0.12 Vminpu=0.8 Vmaxpu=1.2 model=1 kW=4.04330412347979 kvar=1.1447656790699707 Phases=1 yearly=res_kw_307_pu

New Load.load_p1ulv3076_2 conn=wye bus1=p1ulv3076.2 kV=0.12 Vminpu=0.8 Vmaxpu=1.2 model=1 kW=4.04330412347979 kvar=1.1447656790699707 Phases=1 yearly=res_kw_307_pu

New Load.load_p1ulv3077_1 conn=wye bus1=p1ulv3077.1 kV=0.12 Vminpu=0.8 Vmaxpu=1.2 model=1 kW=4.221644888169981 kvar=1.626034048631708 Phases=1 yearly=res_kw_90_pu

New Load.load_p1ulv3077_2 conn=wye bus1=p1ulv3077.2 kV=0.12 Vminpu=0.8 Vmaxpu=1.2 model=1 kW=4.221644888169981 kvar=1.626034048631708 Phases=1 yearly=res_kw_90_pu

New Load.load_p1ulv3078_1 conn=wye bus1=p1ulv3078.1 kV=0.12 Vminpu=0.8 Vmaxpu=1.2 model=1 kW=5.180069985996669 kvar=1.9739256743557854 Phases=1 yearly=res_kw_945_pu

New Load.load_p1ulv3078_2 conn=wye bus1=p1ulv3078.2 kV=0.12 Vminpu=0.8 Vmaxpu=1.2 model=1 kW=5.180069985996669 kvar=1.9739256743557854 Phases=1 yearly=res_kw_945_pu

New Load.load_p1ulv3079_1 conn=wye bus1=p1ulv3079.1 kV=0.12 Vminpu=0.8 Vmaxpu=1.2 model=1 kW=8.313792741133831 kvar=0.9534382044342147 Phases=1 yearly=res_kw_53_pu

New Load.load_p1ulv3079_2 conn=wye bus1=p1ulv3079.2 kV=0.12 Vminpu=0.8 Vmaxpu=1.2 model=1 kW=8.313792741133831 kvar=0.9534382044342147 Phases=1 yearly=res_kw_53_pu

New Load.load_p1ulv3080_1 conn=wye bus1=p1ulv3080.1 kV=0.12 Vminpu=0.8 Vmaxpu=1.2 model=1 kW=7.235767165926777 kvar=2.6686267970114135 Phases=1 yearly=res_kw_652_pu

New Load.load_p1ulv3080_2 conn=wye bus1=p1ulv3080.2 kV=0.12 Vminpu=0.8 Vmaxpu=1.2 model=1 kW=7.235767165926777 kvar=2.6686267970114135 Phases=1 yearly=res_kw_652_pu

New Load.load_p1ulv3081_1 conn=wye bus1=p1ulv3081.1 kV=0.12 Vminpu=0.8 Vmaxpu=1.2 model=1 kW=4.04330412347979 kvar=1.1447656790699707 Phases=1 yearly=res_kw_307_pu

New Load.load_p1ulv3081_2 conn=wye bus1=p1ulv3081.2 kV=0.12 Vminpu=0.8 Vmaxpu=1.2 model=1 kW=4.04330412347979 kvar=1.1447656790699707 Phases=1 yearly=res_kw_307_pu

New Load.load_p1ulv3082_1 conn=wye bus1=p1ulv3082.1 kV=0.12 Vminpu=0.8 Vmaxpu=1.2 model=1 kW=7.235767165926777 kvar=2.6686267970114135 Phases=1 yearly=res_kw_652_pu

New Load.load_p1ulv3082_2 conn=wye bus1=p1ulv3082.2 kV=0.12 Vminpu=0.8 Vmaxpu=1.2 model=1 kW=7.235767165926777 kvar=2.6686267970114135 Phases=1 yearly=res_kw_652_pu

New Load.load_p1ulv3083_1 conn=wye bus1=p1ulv3080.1 kV=0.12 Vminpu=0.8 Vmaxpu=1.2 model=1 kW=4.04330412347979 kvar=1.1447656790699707 Phases=1 yearly=res_kw_307_pu

New Load.load_p1ulv3083_2 conn=wye bus1=p1ulv3080.2 kV=0.12 Vminpu=0.8 Vmaxpu=1.2 model=1 kW=4.04330412347979 kvar=1.1447656790699707 Phases=1 yearly=res_kw_307_pu

New Load.load_p1ulv3084_1 conn=wye bus1=p1ulv3084.1 kV=0.12 Vminpu=0.8 Vmaxpu=1.2 model=1 kW=7.235767165926777 kvar=2.6686267970114135 Phases=1 yearly=res_kw_652_pu

New Load.load_p1ulv3084_2 conn=wye bus1=p1ulv3084.2 kV=0.12 Vminpu=0.8 Vmaxpu=1.2 model=1 kW=7.235767165926777 kvar=2.6686267970114135 Phases=1 yearly=res_kw_652_pu

New Load.load_p1ulv3085_1 conn=wye bus1=p1ulv3085.1 kV=0.12 Vminpu=0.8 Vmaxpu=1.2 model=1 kW=5.493107438910514 kvar=1.5415823949133614 Phases=1 yearly=res_kw_1084_pu

New Load.load_p1ulv3085_2 conn=wye bus1=p1ulv3085.2 kV=0.12 Vminpu=0.8 Vmaxpu=1.2 model=1 kW=5.493107438910514 kvar=1.5415823949133614 Phases=1 yearly=res_kw_1084_pu

New Load.load_p1ulv3086_1 conn=wye bus1=p1ulv3086.1 kV=0.12 Vminpu=0.8 Vmaxpu=1.2 model=1 kW=2.3298924011300017 kvar=0.388795313922141 Phases=1 yearly=res_kw_41_pu

New Load.load_p1ulv3086_2 conn=wye bus1=p1ulv3086.2 kV=0.12 Vminpu=0.8 Vmaxpu=1.2 model=1 kW=2.3298924011300017 kvar=0.388795313922141 Phases=1 yearly=res_kw_41_pu

New Load.load_p1ulv3087_1 conn=wye bus1=p1ulv3087.1 kV=0.12 Vminpu=0.8 Vmaxpu=1.2 model=1 kW=7.235767165926777 kvar=2.6686267970114135 Phases=1 yearly=res_kw_652_pu

New Load.load_p1ulv3087_2 conn=wye bus1=p1ulv3087.2 kV=0.12 Vminpu=0.8 Vmaxpu=1.2 model=1 kW=7.235767165926777 kvar=2.6686267970114135 Phases=1 yearly=res_kw_652_pu

New Load.load_p1ulv3088_1 conn=wye bus1=p1ulv3088.1 kV=0.12 Vminpu=0.8 Vmaxpu=1.2 model=1 kW=7.235767165926777 kvar=2.6686267970114135 Phases=1 yearly=res_kw_652_pu

New Load.load_p1ulv3088_2 conn=wye bus1=p1ulv3088.2 kV=0.12 Vminpu=0.8 Vmaxpu=1.2 model=1 kW=7.235767165926777 kvar=2.6686267970114135 Phases=1 yearly=res_kw_652_pu

New Load.load_p1ulv3089_1 conn=wye bus1=p1ulv3089.1 kV=0.12 Vminpu=0.8 Vmaxpu=1.2 model=1 kW=19.266451356753247 kvar=3.031659959832452 Phases=1 yearly=res_kw_988_pu

New Load.load_p1ulv3089_2 conn=wye bus1=p1ulv3089.2 kV=0.12 Vminpu=0.8 Vmaxpu=1.2 model=1 kW=19.266451356753247 kvar=3.031659959832452 Phases=1 yearly=res_kw_988_pu

New Load.load_p1ulv3090_1 conn=wye bus1=p1ulv3090.1 kV=0.12 Vminpu=0.8 Vmaxpu=1.2 model=1 kW=4.04330412347979 kvar=1.1447656790699707 Phases=1 yearly=res_kw_307_pu

New Load.load_p1ulv3090_2 conn=wye bus1=p1ulv3090.2 kV=0.12 Vminpu=0.8 Vmaxpu=1.2 model=1 kW=4.04330412347979 kvar=1.1447656790699707 Phases=1 yearly=res_kw_307_pu

New Load.load_p1ulv3091_1 conn=wye bus1=p1ulv3091.1 kV=0.12 Vminpu=0.8 Vmaxpu=1.2 model=1 kW=5.493107438910514 kvar=1.5415823949133614 Phases=1 yearly=res_kw_1084_pu

New Load.load_p1ulv3091_2 conn=wye bus1=p1ulv3091.2 kV=0.12 Vminpu=0.8 Vmaxpu=1.2 model=1 kW=5.493107438910514 kvar=1.5415823949133614 Phases=1 yearly=res_kw_1084_pu

New Load.load_p1ulv3092_1 conn=wye bus1=p1ulv3091.1 kV=0.12 Vminpu=0.8 Vmaxpu=1.2 model=1 kW=4.04330412347979 kvar=1.1447656790699707 Phases=1 yearly=res_kw_307_pu

New Load.load_p1ulv3092_2 conn=wye bus1=p1ulv3091.2 kV=0.12 Vminpu=0.8 Vmaxpu=1.2 model=1 kW=4.04330412347979 kvar=1.1447656790699707 Phases=1 yearly=res_kw_307_pu

New Load.load_p1ulv3093_1 conn=wye bus1=p1ulv3093.1 kV=0.12 Vminpu=0.8 Vmaxpu=1.2 model=1 kW=7.235767165926777 kvar=2.6686267970114135 Phases=1 yearly=res_kw_652_pu

New Load.load_p1ulv3093_2 conn=wye bus1=p1ulv3093.2 kV=0.12 Vminpu=0.8 Vmaxpu=1.2 model=1 kW=7.235767165926777 kvar=2.6686267970114135 Phases=1 yearly=res_kw_652_pu

New Load.load_p1ulv3094_1 conn=wye bus1=p1ulv3094.1 kV=0.12 Vminpu=0.8 Vmaxpu=1.2 model=1 kW=6.515818719353152 kvar=1.5451704400959785 Phases=1 yearly=res_kw_1264_pu

New Load.load_p1ulv3094_2 conn=wye bus1=p1ulv3094.2 kV=0.12 Vminpu=0.8 Vmaxpu=1.2 model=1 kW=6.515818719353152 kvar=1.5451704400959785 Phases=1 yearly=res_kw_1264_pu

New Load.load_p1ulv3095_1 conn=wye bus1=p1ulv3095.1 kV=0.12 Vminpu=0.8 Vmaxpu=1.2 model=1 kW=4.04330412347979 kvar=1.1447656790699707 Phases=1 yearly=res_kw_307_pu

New Load.load_p1ulv3095_2 conn=wye bus1=p1ulv3095.2 kV=0.12 Vminpu=0.8 Vmaxpu=1.2 model=1 kW=4.04330412347979 kvar=1.1447656790699707 Phases=1 yearly=res_kw_307_pu

New Load.load_p1ulv3096_1 conn=wye bus1=p1ulv3096.1 kV=0.12 Vminpu=0.8 Vmaxpu=1.2 model=1 kW=4.04330412347979 kvar=1.1447656790699707 Phases=1 yearly=res_kw_307_pu

New Load.load_p1ulv3096_2 conn=wye bus1=p1ulv3096.2 kV=0.12 Vminpu=0.8 Vmaxpu=1.2 model=1 kW=4.04330412347979 kvar=1.1447656790699707 Phases=1 yearly=res_kw_307_pu

New Load.load_p1ulv3097_1 conn=wye bus1=p1ulv3097.1 kV=0.12 Vminpu=0.8 Vmaxpu=1.2 model=1 kW=5.493107438910514 kvar=1.5415823949133614 Phases=1 yearly=res_kw_1084_pu

New Load.load_p1ulv3097_2 conn=wye bus1=p1ulv3097.2 kV=0.12 Vminpu=0.8 Vmaxpu=1.2 model=1 kW=5.493107438910514 kvar=1.5415823949133614 Phases=1 yearly=res_kw_1084_pu

New Load.load_p1ulv3098_1 conn=wye bus1=p1ulv3097.1 kV=0.12 Vminpu=0.8 Vmaxpu=1.2 model=1 kW=7.235767165926777 kvar=2.6686267970114135 Phases=1 yearly=res_kw_652_pu

New Load.load_p1ulv3098_2 conn=wye bus1=p1ulv3097.2 kV=0.12 Vminpu=0.8 Vmaxpu=1.2 model=1 kW=7.235767165926777 kvar=2.6686267970114135 Phases=1 yearly=res_kw_652_pu

New Load.load_p1ulv3099_1 conn=wye bus1=p1ulv3099.1 kV=0.12 Vminpu=0.8 Vmaxpu=1.2 model=1 kW=4.04330412347979 kvar=1.1447656790699707 Phases=1 yearly=res_kw_307_pu

New Load.load_p1ulv3099_2 conn=wye bus1=p1ulv3099.2 kV=0.12 Vminpu=0.8 Vmaxpu=1.2 model=1 kW=4.04330412347979 kvar=1.1447656790699707 Phases=1 yearly=res_kw_307_pu

New Load.load_p1ulv3100_1 conn=wye bus1=p1ulv3100.1 kV=0.12 Vminpu=0.8 Vmaxpu=1.2 model=1 kW=5.180069985996669 kvar=1.9739256743557854 Phases=1 yearly=res_kw_945_pu

New Load.load_p1ulv3100_2 conn=wye bus1=p1ulv3100.2 kV=0.12 Vminpu=0.8 Vmaxpu=1.2 model=1 kW=5.180069985996669 kvar=1.9739256743557854 Phases=1 yearly=res_kw_945_pu

New Load.load_p1ulv3101_1 conn=wye bus1=p1ulv3100.1 kV=0.12 Vminpu=0.8 Vmaxpu=1.2 model=1 kW=4.221644888169981 kvar=1.626034048631708 Phases=1 yearly=res_kw_90_pu

New Load.load_p1ulv3101_2 conn=wye bus1=p1ulv3100.2 kV=0.12 Vminpu=0.8 Vmaxpu=1.2 model=1 kW=4.221644888169981 kvar=1.626034048631708 Phases=1 yearly=res_kw_90_pu

New Load.load_p1ulv3102_1 conn=wye bus1=p1ulv3102.1 kV=0.12 Vminpu=0.8 Vmaxpu=1.2 model=1 kW=4.04330412347979 kvar=1.1447656790699707 Phases=1 yearly=res_kw_307_pu

New Load.load_p1ulv3102_2 conn=wye bus1=p1ulv3102.2 kV=0.12 Vminpu=0.8 Vmaxpu=1.2 model=1 kW=4.04330412347979 kvar=1.1447656790699707 Phases=1 yearly=res_kw_307_pu

New Load.load_p1ulv3103_1 conn=wye bus1=p1ulv3102.1 kV=0.12 Vminpu=0.8 Vmaxpu=1.2 model=1 kW=4.04330412347979 kvar=1.1447656790699707 Phases=1 yearly=res_kw_307_pu

New Load.load_p1ulv3103_2 conn=wye bus1=p1ulv3102.2 kV=0.12 Vminpu=0.8 Vmaxpu=1.2 model=1 kW=4.04330412347979 kvar=1.1447656790699707 Phases=1 yearly=res_kw_307_pu

New Load.load_p1ulv3104_1 conn=wye bus1=p1ulv3104.1 kV=0.12 Vminpu=0.8 Vmaxpu=1.2 model=1 kW=7.235767165926777 kvar=2.6686267970114135 Phases=1 yearly=res_kw_652_pu

New Load.load_p1ulv3104_2 conn=wye bus1=p1ulv3104.2 kV=0.12 Vminpu=0.8 Vmaxpu=1.2 model=1 kW=7.235767165926777 kvar=2.6686267970114135 Phases=1 yearly=res_kw_652_pu

New Load.load_p1ulv3105_1 conn=wye bus1=p1ulv3105.1 kV=0.12 Vminpu=0.8 Vmaxpu=1.2 model=1 kW=4.04330412347979 kvar=1.1447656790699707 Phases=1 yearly=res_kw_307_pu

New Load.load_p1ulv3105_2 conn=wye bus1=p1ulv3105.2 kV=0.12 Vminpu=0.8 Vmaxpu=1.2 model=1 kW=4.04330412347979 kvar=1.1447656790699707 Phases=1 yearly=res_kw_307_pu

New Load.load_p1ulv3106_1 conn=wye bus1=p1ulv3105.1 kV=0.12 Vminpu=0.8 Vmaxpu=1.2 model=1 kW=4.04330412347979 kvar=1.1447656790699707 Phases=1 yearly=res_kw_307_pu

New Load.load_p1ulv3106_2 conn=wye bus1=p1ulv3105.2 kV=0.12 Vminpu=0.8 Vmaxpu=1.2 model=1 kW=4.04330412347979 kvar=1.1447656790699707 Phases=1 yearly=res_kw_307_pu

New Load.load_p1ulv3107_1 conn=wye bus1=p1ulv3107.1 kV=0.12 Vminpu=0.8 Vmaxpu=1.2 model=1 kW=2.252586941983099 kvar=1.0135983600233158 Phases=1 yearly=res_kw_853_pu

New Load.load_p1ulv3107_2 conn=wye bus1=p1ulv3107.2 kV=0.12 Vminpu=0.8 Vmaxpu=1.2 model=1 kW=2.252586941983099 kvar=1.0135983600233158 Phases=1 yearly=res_kw_853_pu

New Load.load_p1ulv3108_1 conn=wye bus1=p1ulv3108.1 kV=0.12 Vminpu=0.8 Vmaxpu=1.2 model=1 kW=7.235767165926777 kvar=2.6686267970114135 Phases=1 yearly=res_kw_652_pu

New Load.load_p1ulv3108_2 conn=wye bus1=p1ulv3108.2 kV=0.12 Vminpu=0.8 Vmaxpu=1.2 model=1 kW=7.235767165926777 kvar=2.6686267970114135 Phases=1 yearly=res_kw_652_pu

New Load.load_p1ulv3109_1 conn=wye bus1=p1ulv3109.1 kV=0.12 Vminpu=0.8 Vmaxpu=1.2 model=1 kW=5.493107438910514 kvar=1.5415823949133614 Phases=1 yearly=res_kw_1084_pu

New Load.load_p1ulv3109_2 conn=wye bus1=p1ulv3109.2 kV=0.12 Vminpu=0.8 Vmaxpu=1.2 model=1 kW=5.493107438910514 kvar=1.5415823949133614 Phases=1 yearly=res_kw_1084_pu

New Load.load_p1ulv3110_1 conn=wye bus1=p1ulv3109.1 kV=0.12 Vminpu=0.8 Vmaxpu=1.2 model=1 kW=2.252586941983099 kvar=1.0135983600233158 Phases=1 yearly=res_kw_853_pu

New Load.load_p1ulv3110_2 conn=wye bus1=p1ulv3109.2 kV=0.12 Vminpu=0.8 Vmaxpu=1.2 model=1 kW=2.252586941983099 kvar=1.0135983600233158 Phases=1 yearly=res_kw_853_pu

New Load.load_p1ulv3111_1 conn=wye bus1=p1ulv3111.1 kV=0.12 Vminpu=0.8 Vmaxpu=1.2 model=1 kW=7.235767165926777 kvar=2.6686267970114135 Phases=1 yearly=res_kw_652_pu

New Load.load_p1ulv3111_2 conn=wye bus1=p1ulv3111.2 kV=0.12 Vminpu=0.8 Vmaxpu=1.2 model=1 kW=7.235767165926777 kvar=2.6686267970114135 Phases=1 yearly=res_kw_652_pu

New Load.load_p1ulv3112_1 conn=wye bus1=p1ulv3112.1 kV=0.12 Vminpu=0.8 Vmaxpu=1.2 model=1 kW=4.04330412347979 kvar=1.1447656790699707 Phases=1 yearly=res_kw_307_pu

New Load.load_p1ulv3112_2 conn=wye bus1=p1ulv3112.2 kV=0.12 Vminpu=0.8 Vmaxpu=1.2 model=1 kW=4.04330412347979 kvar=1.1447656790699707 Phases=1 yearly=res_kw_307_pu

New Load.load_p1ulv3113_1 conn=wye bus1=p1ulv3113.1 kV=0.12 Vminpu=0.8 Vmaxpu=1.2 model=1 kW=7.235767165926777 kvar=2.6686267970114135 Phases=1 yearly=res_kw_652_pu

New Load.load_p1ulv3113_2 conn=wye bus1=p1ulv3113.2 kV=0.12 Vminpu=0.8 Vmaxpu=1.2 model=1 kW=7.235767165926777 kvar=2.6686267970114135 Phases=1 yearly=res_kw_652_pu

New Load.load_p1ulv3114_1 conn=wye bus1=p1ulv3114.1 kV=0.12 Vminpu=0.8 Vmaxpu=1.2 model=1 kW=2.3700113203165794 kvar=1.0419328311463634 Phases=1 yearly=res_kw_327_pu

New Load.load_p1ulv3114_2 conn=wye bus1=p1ulv3114.2 kV=0.12 Vminpu=0.8 Vmaxpu=1.2 model=1 kW=2.3700113203165794 kvar=1.0419328311463634 Phases=1 yearly=res_kw_327_pu

New Load.load_p1ulv3115_1 conn=wye bus1=p1ulv3115.1 kV=0.12 Vminpu=0.8 Vmaxpu=1.2 model=1 kW=7.235767165926777 kvar=2.6686267970114135 Phases=1 yearly=res_kw_652_pu

New Load.load_p1ulv3115_2 conn=wye bus1=p1ulv3115.2 kV=0.12 Vminpu=0.8 Vmaxpu=1.2 model=1 kW=7.235767165926777 kvar=2.6686267970114135 Phases=1 yearly=res_kw_652_pu

New Load.load_p1ulv3116_1 conn=wye bus1=p1ulv3116.1 kV=0.12 Vminpu=0.8 Vmaxpu=1.2 model=1 kW=2.252586941983099 kvar=1.0135983600233158 Phases=1 yearly=res_kw_853_pu

New Load.load_p1ulv3116_2 conn=wye bus1=p1ulv3116.2 kV=0.12 Vminpu=0.8 Vmaxpu=1.2 model=1 kW=2.252586941983099 kvar=1.0135983600233158 Phases=1 yearly=res_kw_853_pu

New Load.load_p1ulv3117_1 conn=wye bus1=p1ulv3117.1 kV=0.12 Vminpu=0.8 Vmaxpu=1.2 model=1 kW=2.3298924011300017 kvar=0.388795313922141 Phases=1 yearly=res_kw_41_pu

New Load.load_p1ulv3117_2 conn=wye bus1=p1ulv3117.2 kV=0.12 Vminpu=0.8 Vmaxpu=1.2 model=1 kW=2.3298924011300017 kvar=0.388795313922141 Phases=1 yearly=res_kw_41_pu

New Load.load_p1ulv3118_1 conn=wye bus1=p1ulv3118.1 kV=0.12 Vminpu=0.8 Vmaxpu=1.2 model=1 kW=6.817994061838357 kvar=0.9100697715919355 Phases=1 yearly=res_kw_1099_pu

New Load.load_p1ulv3118_2 conn=wye bus1=p1ulv3118.2 kV=0.12 Vminpu=0.8 Vmaxpu=1.2 model=1 kW=6.817994061838357 kvar=0.9100697715919355 Phases=1 yearly=res_kw_1099_pu

New Load.load_p1ulv3119_1 conn=wye bus1=p1ulv3119.1 kV=0.12 Vminpu=0.8 Vmaxpu=1.2 model=1 kW=2.252586941983099 kvar=1.0135983600233158 Phases=1 yearly=res_kw_853_pu

New Load.load_p1ulv3119_2 conn=wye bus1=p1ulv3119.2 kV=0.12 Vminpu=0.8 Vmaxpu=1.2 model=1 kW=2.252586941983099 kvar=1.0135983600233158 Phases=1 yearly=res_kw_853_pu

New Load.load_p1ulv3120_1 conn=wye bus1=p1ulv3120.1 kV=0.12 Vminpu=0.8 Vmaxpu=1.2 model=1 kW=10.385223275469155 kvar=4.238948256103666 Phases=1 yearly=res_kw_146_pu

New Load.load_p1ulv3120_2 conn=wye bus1=p1ulv3120.2 kV=0.12 Vminpu=0.8 Vmaxpu=1.2 model=1 kW=10.385223275469155 kvar=4.238948256103666 Phases=1 yearly=res_kw_146_pu

New Load.load_p1ulv3121_1 conn=wye bus1=p1ulv3121.1 kV=0.12 Vminpu=0.8 Vmaxpu=1.2 model=1 kW=2.252586941983099 kvar=1.0135983600233158 Phases=1 yearly=res_kw_853_pu

New Load.load_p1ulv3121_2 conn=wye bus1=p1ulv3121.2 kV=0.12 Vminpu=0.8 Vmaxpu=1.2 model=1 kW=2.252586941983099 kvar=1.0135983600233158 Phases=1 yearly=res_kw_853_pu

New Load.load_p1ulv3122_1 conn=wye bus1=p1ulv3122.1 kV=0.12 Vminpu=0.8 Vmaxpu=1.2 model=1 kW=5.180069985996669 kvar=1.9739256743557854 Phases=1 yearly=res_kw_945_pu

New Load.load_p1ulv3122_2 conn=wye bus1=p1ulv3122.2 kV=0.12 Vminpu=0.8 Vmaxpu=1.2 model=1 kW=5.180069985996669 kvar=1.9739256743557854 Phases=1 yearly=res_kw_945_pu

New Load.load_p1ulv3123_1 conn=wye bus1=p1ulv3123.1 kV=0.12 Vminpu=0.8 Vmaxpu=1.2 model=1 kW=7.235767165926777 kvar=2.6686267970114135 Phases=1 yearly=res_kw_652_pu

New Load.load_p1ulv3123_2 conn=wye bus1=p1ulv3123.2 kV=0.12 Vminpu=0.8 Vmaxpu=1.2 model=1 kW=7.235767165926777 kvar=2.6686267970114135 Phases=1 yearly=res_kw_652_pu

New Load.load_p1ulv3124_1 conn=wye bus1=p1ulv3124.1 kV=0.12 Vminpu=0.8 Vmaxpu=1.2 model=1 kW=10.385223275469155 kvar=4.238948256103666 Phases=1 yearly=res_kw_146_pu

New Load.load_p1ulv3124_2 conn=wye bus1=p1ulv3124.2 kV=0.12 Vminpu=0.8 Vmaxpu=1.2 model=1 kW=10.385223275469155 kvar=4.238948256103666 Phases=1 yearly=res_kw_146_pu

New Load.load_p1ulv3125_1 conn=wye bus1=p1ulv3125.1 kV=0.12 Vminpu=0.8 Vmaxpu=1.2 model=1 kW=5.180069985996669 kvar=1.9739256743557854 Phases=1 yearly=res_kw_945_pu

New Load.load_p1ulv3125_2 conn=wye bus1=p1ulv3125.2 kV=0.12 Vminpu=0.8 Vmaxpu=1.2 model=1 kW=5.180069985996669 kvar=1.9739256743557854 Phases=1 yearly=res_kw_945_pu

New Load.load_p1ulv3126_1 conn=wye bus1=p1ulv3126.1 kV=0.12 Vminpu=0.8 Vmaxpu=1.2 model=1 kW=7.235767165926777 kvar=2.6686267970114135 Phases=1 yearly=res_kw_652_pu

New Load.load_p1ulv3126_2 conn=wye bus1=p1ulv3126.2 kV=0.12 Vminpu=0.8 Vmaxpu=1.2 model=1 kW=7.235767165926777 kvar=2.6686267970114135 Phases=1 yearly=res_kw_652_pu

New Load.load_p1ulv3127_1 conn=wye bus1=p1ulv3127.1 kV=0.12 Vminpu=0.8 Vmaxpu=1.2 model=1 kW=7.235767165926777 kvar=2.6686267970114135 Phases=1 yearly=res_kw_652_pu

New Load.load_p1ulv3127_2 conn=wye bus1=p1ulv3127.2 kV=0.12 Vminpu=0.8 Vmaxpu=1.2 model=1 kW=7.235767165926777 kvar=2.6686267970114135 Phases=1 yearly=res_kw_652_pu

New Load.load_p1ulv3128_1 conn=wye bus1=p1ulv3128.1 kV=0.12 Vminpu=0.8 Vmaxpu=1.2 model=1 kW=19.266451356753247 kvar=3.031659959832452 Phases=1 yearly=res_kw_988_pu

New Load.load_p1ulv3128_2 conn=wye bus1=p1ulv3128.2 kV=0.12 Vminpu=0.8 Vmaxpu=1.2 model=1 kW=19.266451356753247 kvar=3.031659959832452 Phases=1 yearly=res_kw_988_pu

New Load.load_p1ulv3129_1 conn=wye bus1=p1ulv3129.1 kV=0.12 Vminpu=0.8 Vmaxpu=1.2 model=1 kW=7.235767165926777 kvar=2.6686267970114135 Phases=1 yearly=res_kw_652_pu

New Load.load_p1ulv3129_2 conn=wye bus1=p1ulv3129.2 kV=0.12 Vminpu=0.8 Vmaxpu=1.2 model=1 kW=7.235767165926777 kvar=2.6686267970114135 Phases=1 yearly=res_kw_652_pu

New Load.load_p1ulv3130_1 conn=wye bus1=p1ulv3130.1 kV=0.12 Vminpu=0.8 Vmaxpu=1.2 model=1 kW=4.04330412347979 kvar=1.1447656790699707 Phases=1 yearly=res_kw_307_pu

New Load.load_p1ulv3130_2 conn=wye bus1=p1ulv3130.2 kV=0.12 Vminpu=0.8 Vmaxpu=1.2 model=1 kW=4.04330412347979 kvar=1.1447656790699707 Phases=1 yearly=res_kw_307_pu

New Load.load_p1ulv3131_1 conn=wye bus1=p1ulv3131.1 kV=0.12 Vminpu=0.8 Vmaxpu=1.2 model=1 kW=2.3298924011300017 kvar=0.388795313922141 Phases=1 yearly=res_kw_41_pu

New Load.load_p1ulv3131_2 conn=wye bus1=p1ulv3131.2 kV=0.12 Vminpu=0.8 Vmaxpu=1.2 model=1 kW=2.3298924011300017 kvar=0.388795313922141 Phases=1 yearly=res_kw_41_pu

New Load.load_p1ulv3132_1 conn=wye bus1=p1ulv3131.1 kV=0.12 Vminpu=0.8 Vmaxpu=1.2 model=1 kW=5.180069985996669 kvar=1.9739256743557854 Phases=1 yearly=res_kw_945_pu

New Load.load_p1ulv3132_2 conn=wye bus1=p1ulv3131.2 kV=0.12 Vminpu=0.8 Vmaxpu=1.2 model=1 kW=5.180069985996669 kvar=1.9739256743557854 Phases=1 yearly=res_kw_945_pu

New Load.load_p1ulv3133_1 conn=wye bus1=p1ulv3133.1 kV=0.12 Vminpu=0.8 Vmaxpu=1.2 model=1 kW=8.313792741133831 kvar=0.9534382044342147 Phases=1 yearly=res_kw_53_pu

New Load.load_p1ulv3133_2 conn=wye bus1=p1ulv3133.2 kV=0.12 Vminpu=0.8 Vmaxpu=1.2 model=1 kW=8.313792741133831 kvar=0.9534382044342147 Phases=1 yearly=res_kw_53_pu

New Load.load_p1ulv3134_1 conn=wye bus1=p1ulv3134.1 kV=0.12 Vminpu=0.8 Vmaxpu=1.2 model=1 kW=6.817994061838357 kvar=0.9100697715919355 Phases=1 yearly=res_kw_1099_pu

New Load.load_p1ulv3134_2 conn=wye bus1=p1ulv3134.2 kV=0.12 Vminpu=0.8 Vmaxpu=1.2 model=1 kW=6.817994061838357 kvar=0.9100697715919355 Phases=1 yearly=res_kw_1099_pu

New Load.load_p1ulv3135_1 conn=wye bus1=p1ulv3135.1 kV=0.12 Vminpu=0.8 Vmaxpu=1.2 model=1 kW=2.3298924011300017 kvar=0.388795313922141 Phases=1 yearly=res_kw_41_pu

New Load.load_p1ulv3135_2 conn=wye bus1=p1ulv3135.2 kV=0.12 Vminpu=0.8 Vmaxpu=1.2 model=1 kW=2.3298924011300017 kvar=0.388795313922141 Phases=1 yearly=res_kw_41_pu

New Load.load_p1ulv3136_1 conn=wye bus1=p1ulv3136.1 kV=0.12 Vminpu=0.8 Vmaxpu=1.2 model=1 kW=2.252586941983099 kvar=1.0135983600233158 Phases=1 yearly=res_kw_853_pu

New Load.load_p1ulv3136_2 conn=wye bus1=p1ulv3136.2 kV=0.12 Vminpu=0.8 Vmaxpu=1.2 model=1 kW=2.252586941983099 kvar=1.0135983600233158 Phases=1 yearly=res_kw_853_pu

New Load.load_p1ulv3137_1 conn=wye bus1=p1ulv3137.1 kV=0.12 Vminpu=0.8 Vmaxpu=1.2 model=1 kW=4.221644888169981 kvar=1.626034048631708 Phases=1 yearly=res_kw_90_pu

New Load.load_p1ulv3137_2 conn=wye bus1=p1ulv3137.2 kV=0.12 Vminpu=0.8 Vmaxpu=1.2 model=1 kW=4.221644888169981 kvar=1.626034048631708 Phases=1 yearly=res_kw_90_pu

New Load.load_p1ulv3138_1 conn=wye bus1=p1ulv3137.1 kV=0.12 Vminpu=0.8 Vmaxpu=1.2 model=1 kW=5.493107438910514 kvar=1.5415823949133614 Phases=1 yearly=res_kw_1084_pu

New Load.load_p1ulv3138_2 conn=wye bus1=p1ulv3137.2 kV=0.12 Vminpu=0.8 Vmaxpu=1.2 model=1 kW=5.493107438910514 kvar=1.5415823949133614 Phases=1 yearly=res_kw_1084_pu

New Load.load_p1ulv3139_1 conn=wye bus1=p1ulv3139.1 kV=0.12 Vminpu=0.8 Vmaxpu=1.2 model=1 kW=2.252586941983099 kvar=1.0135983600233158 Phases=1 yearly=res_kw_853_pu

New Load.load_p1ulv3139_2 conn=wye bus1=p1ulv3139.2 kV=0.12 Vminpu=0.8 Vmaxpu=1.2 model=1 kW=2.252586941983099 kvar=1.0135983600233158 Phases=1 yearly=res_kw_853_pu

New Load.load_p1ulv3140_1 conn=wye bus1=p1ulv3140.1 kV=0.12 Vminpu=0.8 Vmaxpu=1.2 model=1 kW=2.252586941983099 kvar=1.0135983600233158 Phases=1 yearly=res_kw_853_pu

New Load.load_p1ulv3140_2 conn=wye bus1=p1ulv3140.2 kV=0.12 Vminpu=0.8 Vmaxpu=1.2 model=1 kW=2.252586941983099 kvar=1.0135983600233158 Phases=1 yearly=res_kw_853_pu

New Load.load_p1ulv3141_1 conn=wye bus1=p1ulv3141.1 kV=0.12 Vminpu=0.8 Vmaxpu=1.2 model=1 kW=2.252586941983099 kvar=1.0135983600233158 Phases=1 yearly=res_kw_853_pu

New Load.load_p1ulv3141_2 conn=wye bus1=p1ulv3141.2 kV=0.12 Vminpu=0.8 Vmaxpu=1.2 model=1 kW=2.252586941983099 kvar=1.0135983600233158 Phases=1 yearly=res_kw_853_pu

New Load.load_p1ulv3142_1 conn=wye bus1=p1ulv3142.1 kV=0.12 Vminpu=0.8 Vmaxpu=1.2 model=1 kW=10.385223275469155 kvar=4.238948256103666 Phases=1 yearly=res_kw_146_pu

New Load.load_p1ulv3142_2 conn=wye bus1=p1ulv3142.2 kV=0.12 Vminpu=0.8 Vmaxpu=1.2 model=1 kW=10.385223275469155 kvar=4.238948256103666 Phases=1 yearly=res_kw_146_pu

New Load.load_p1ulv3143_1 conn=wye bus1=p1ulv3143.1 kV=0.12 Vminpu=0.8 Vmaxpu=1.2 model=1 kW=4.04330412347979 kvar=1.1447656790699707 Phases=1 yearly=res_kw_307_pu

New Load.load_p1ulv3143_2 conn=wye bus1=p1ulv3143.2 kV=0.12 Vminpu=0.8 Vmaxpu=1.2 model=1 kW=4.04330412347979 kvar=1.1447656790699707 Phases=1 yearly=res_kw_307_pu

New Load.load_p1ulv3144_1 conn=wye bus1=p1ulv3144.1 kV=0.12 Vminpu=0.8 Vmaxpu=1.2 model=1 kW=7.235767165926777 kvar=2.6686267970114135 Phases=1 yearly=res_kw_652_pu

New Load.load_p1ulv3144_2 conn=wye bus1=p1ulv3144.2 kV=0.12 Vminpu=0.8 Vmaxpu=1.2 model=1 kW=7.235767165926777 kvar=2.6686267970114135 Phases=1 yearly=res_kw_652_pu

New Load.load_p1ulv3145_1 conn=wye bus1=p1ulv3145.1 kV=0.12 Vminpu=0.8 Vmaxpu=1.2 model=1 kW=7.235767165926777 kvar=2.6686267970114135 Phases=1 yearly=res_kw_652_pu

New Load.load_p1ulv3145_2 conn=wye bus1=p1ulv3145.2 kV=0.12 Vminpu=0.8 Vmaxpu=1.2 model=1 kW=7.235767165926777 kvar=2.6686267970114135 Phases=1 yearly=res_kw_652_pu

New Load.load_p1ulv3146_1 conn=wye bus1=p1ulv3146.1 kV=0.12 Vminpu=0.8 Vmaxpu=1.2 model=1 kW=4.221644888169981 kvar=1.626034048631708 Phases=1 yearly=res_kw_90_pu

New Load.load_p1ulv3146_2 conn=wye bus1=p1ulv3146.2 kV=0.12 Vminpu=0.8 Vmaxpu=1.2 model=1 kW=4.221644888169981 kvar=1.626034048631708 Phases=1 yearly=res_kw_90_pu

New Load.load_p1ulv3147_1 conn=wye bus1=p1ulv3147.1 kV=0.12 Vminpu=0.8 Vmaxpu=1.2 model=1 kW=4.04330412347979 kvar=1.1447656790699707 Phases=1 yearly=res_kw_307_pu

New Load.load_p1ulv3147_2 conn=wye bus1=p1ulv3147.2 kV=0.12 Vminpu=0.8 Vmaxpu=1.2 model=1 kW=4.04330412347979 kvar=1.1447656790699707 Phases=1 yearly=res_kw_307_pu

New Load.load_p1ulv3148_1 conn=wye bus1=p1ulv3148.1 kV=0.12 Vminpu=0.8 Vmaxpu=1.2 model=1 kW=7.235767165926777 kvar=2.6686267970114135 Phases=1 yearly=res_kw_652_pu

New Load.load_p1ulv3148_2 conn=wye bus1=p1ulv3148.2 kV=0.12 Vminpu=0.8 Vmaxpu=1.2 model=1 kW=7.235767165926777 kvar=2.6686267970114135 Phases=1 yearly=res_kw_652_pu

New Load.load_p1ulv4028_1 conn=wye bus1=p1ulv4028.1 kV=0.12 Vminpu=0.8 Vmaxpu=1.2 model=1 kW=4.066587428282395 kvar=0.7788614811484863 Phases=1 yearly=res_kw_887_pu

New Load.load_p1ulv4028_2 conn=wye bus1=p1ulv4028.2 kV=0.12 Vminpu=0.8 Vmaxpu=1.2 model=1 kW=4.066587428282395 kvar=0.7788614811484863 Phases=1 yearly=res_kw_887_pu

New Load.load_p1ulv4029_1 conn=wye bus1=p1ulv4029.1 kV=0.12 Vminpu=0.8 Vmaxpu=1.2 model=1 kW=4.505900280832392 kvar=0.6729743583292512 Phases=1 yearly=res_kw_453_pu

New Load.load_p1ulv4029_2 conn=wye bus1=p1ulv4029.2 kV=0.12 Vminpu=0.8 Vmaxpu=1.2 model=1 kW=4.505900280832392 kvar=0.6729743583292512 Phases=1 yearly=res_kw_453_pu

New Load.load_p1ulv4030_1 conn=wye bus1=p1ulv4030.1 kV=0.12 Vminpu=0.8 Vmaxpu=1.2 model=1 kW=2.1376631749204993 kvar=0.6218033466021168 Phases=1 yearly=res_kw_93_pu

New Load.load_p1ulv4030_2 conn=wye bus1=p1ulv4030.2 kV=0.12 Vminpu=0.8 Vmaxpu=1.2 model=1 kW=2.1376631749204993 kvar=0.6218033466021168 Phases=1 yearly=res_kw_93_pu

New Load.load_p1ulv4031_1 conn=wye bus1=p1ulv4031.1 kV=0.12 Vminpu=0.8 Vmaxpu=1.2 model=1 kW=1.3741353032147752 kvar=0.58237922359024 Phases=1 yearly=res_kw_1041_pu

New Load.load_p1ulv4031_2 conn=wye bus1=p1ulv4031.2 kV=0.12 Vminpu=0.8 Vmaxpu=1.2 model=1 kW=1.3741353032147752 kvar=0.58237922359024 Phases=1 yearly=res_kw_1041_pu

New Load.load_p1ulv4032_1 conn=wye bus1=p1ulv4032.1 kV=0.12 Vminpu=0.8 Vmaxpu=1.2 model=1 kW=5.947053638705014 kvar=1.2332751328813323 Phases=1 yearly=res_kw_245_pu

New Load.load_p1ulv4032_2 conn=wye bus1=p1ulv4032.2 kV=0.12 Vminpu=0.8 Vmaxpu=1.2 model=1 kW=5.947053638705014 kvar=1.2332751328813323 Phases=1 yearly=res_kw_245_pu

New Load.load_p1ulv4033_1 conn=wye bus1=p1ulv4033.1 kV=0.12 Vminpu=0.8 Vmaxpu=1.2 model=1 kW=2.1376631749204993 kvar=0.6218033466021168 Phases=1 yearly=res_kw_93_pu
