New Load.load_p1ulv1954_1 conn=wye bus1=p1ulv1954.1 kV=0.12 Vminpu=0.8 Vmaxpu=1.2 model=1 kW=2.0380250144225394 kvar=0.5847764991219453 Phases=1 yearly=com_kw_15124_pu

New Load.load_p1ulv1954_2 conn=wye bus1=p1ulv1954.2 kV=0.12 Vminpu=0.8 Vmaxpu=1.2 model=1 kW=2.0380250144225394 kvar=0.5847764991219453 Phases=1 yearly=com_kw_15124_pu

New Load.load_p1ulv1955_1 conn=wye bus1=p1ulv1955.1 kV=0.12 Vminpu=0.8 Vmaxpu=1.2 model=1 kW=3.013000258801837 kvar=0.6644912672412583 Phases=1 yearly=com_kw_13887_pu

New Load.load_p1ulv1955_2 conn=wye bus1=p1ulv1955.2 kV=0.12 Vminpu=0.8 Vmaxpu=1.2 model=1 kW=3.013000258801837 kvar=0.6644912672412583 Phases=1 yearly=com_kw_13887_pu

New Load.load_p1ulv1956_1 conn=wye bus1=p1ulv1955.1 kV=0.12 Vminpu=0.8 Vmaxpu=1.2 model=1 kW=4.479056656710896 kvar=0.2017917351382802 Phases=1 yearly=com_kw_14056_pu

New Load.load_p1ulv1956_2 conn=wye bus1=p1ulv1955.2 kV=0.12 Vminpu=0.8 Vmaxpu=1.2 model=1 kW=4.479056656710896 kvar=0.2017917351382802 Phases=1 yearly=com_kw_14056_pu

New Load.load_p1ulv1957_1 conn=wye bus1=p1ulv1957.1 kV=0.12 Vminpu=0.8 Vmaxpu=1.2 model=1 kW=4.589231411483642 kvar=0.1871715682789368 Phases=1 yearly=com_kw_13515_pu

New Load.load_p1ulv1957_2 conn=wye bus1=p1ulv1957.2 kV=0.12 Vminpu=0.8 Vmaxpu=1.2 model=1 kW=4.589231411483642 kvar=0.1871715682789368 Phases=1 yearly=com_kw_13515_pu

New Load.load_p1ulv1958_1 conn=wye bus1=p1ulv1958.1 kV=0.12 Vminpu=0.8 Vmaxpu=1.2 model=1 kW=5.574986239386177 kvar=0.24270326316758836 Phases=1 yearly=com_kw_13291_pu

New Load.load_p1ulv1958_2 conn=wye bus1=p1ulv1958.2 kV=0.12 Vminpu=0.8 Vmaxpu=1.2 model=1 kW=5.574986239386177 kvar=0.24270326316758836 Phases=1 yearly=com_kw_13291_pu

New Load.load_p1ulv1959_1 conn=wye bus1=p1ulv1958.1 kV=0.12 Vminpu=0.8 Vmaxpu=1.2 model=1 kW=4.642179748908938 kvar=0.176462268654847 Phases=1 yearly=com_kw_15157_pu

New Load.load_p1ulv1959_2 conn=wye bus1=p1ulv1958.2 kV=0.12 Vminpu=0.8 Vmaxpu=1.2 model=1 kW=4.642179748908938 kvar=0.176462268654847 Phases=1 yearly=com_kw_15157_pu

New Load.load_p1ulv1960_1 conn=wye bus1=p1ulv1960.1 kV=0.12 Vminpu=0.8 Vmaxpu=1.2 model=1 kW=1.8775078991445364 kvar=0.511706884096551 Phases=1 yearly=com_kw_14932_pu

New Load.load_p1ulv1960_2 conn=wye bus1=p1ulv1960.2 kV=0.12 Vminpu=0.8 Vmaxpu=1.2 model=1 kW=1.8775078991445364 kvar=0.511706884096551 Phases=1 yearly=com_kw_14932_pu

New Load.load_p1ulv1961_1 conn=wye bus1=p1ulv1961.1 kV=0.12 Vminpu=0.8 Vmaxpu=1.2 model=1 kW=5.2342602505249465 kvar=0.03192958905801793 Phases=1 yearly=com_kw_13109_pu

New Load.load_p1ulv1961_2 conn=wye bus1=p1ulv1961.2 kV=0.12 Vminpu=0.8 Vmaxpu=1.2 model=1 kW=5.2342602505249465 kvar=0.03192958905801793 Phases=1 yearly=com_kw_13109_pu

New Load.load_p1ulv1962_1 conn=wye bus1=p1ulv1962.1 kV=0.12 Vminpu=0.8 Vmaxpu=1.2 model=1 kW=2.4716999256380876 kvar=0.7079643646342628 Phases=1 yearly=com_kw_14407_pu

New Load.load_p1ulv1962_2 conn=wye bus1=p1ulv1962.2 kV=0.12 Vminpu=0.8 Vmaxpu=1.2 model=1 kW=2.4716999256380876 kvar=0.7079643646342628 Phases=1 yearly=com_kw_14407_pu

New Load.load_p1ulv1963_1 conn=wye bus1=p1ulv1962.1 kV=0.12 Vminpu=0.8 Vmaxpu=1.2 model=1 kW=4.737995147424034 kvar=0.27793880247771546 Phases=1 yearly=com_kw_14277_pu

New Load.load_p1ulv1963_2 conn=wye bus1=p1ulv1962.2 kV=0.12 Vminpu=0.8 Vmaxpu=1.2 model=1 kW=4.737995147424034 kvar=0.27793880247771546 Phases=1 yearly=com_kw_14277_pu

New Load.load_p1ulv1964_1 conn=wye bus1=p1ulv1964.1 kV=0.12 Vminpu=0.8 Vmaxpu=1.2 model=1 kW=2.1271986187473146 kvar=0.5751959086648131 Phases=1 yearly=com_kw_14402_pu

New Load.load_p1ulv1964_2 conn=wye bus1=p1ulv1964.2 kV=0.12 Vminpu=0.8 Vmaxpu=1.2 model=1 kW=2.1271986187473146 kvar=0.5751959086648131 Phases=1 yearly=com_kw_14402_pu

New Load.load_p1ulv1965_1 conn=wye bus1=p1ulv1965.1 kV=0.12 Vminpu=0.8 Vmaxpu=1.2 model=1 kW=3.013000258801837 kvar=0.6644912672412583 Phases=1 yearly=com_kw_13887_pu

New Load.load_p1ulv1965_2 conn=wye bus1=p1ulv1965.2 kV=0.12 Vminpu=0.8 Vmaxpu=1.2 model=1 kW=3.013000258801837 kvar=0.6644912672412583 Phases=1 yearly=com_kw_13887_pu

New Load.load_p1ulv1966_1 conn=wye bus1=p1ulv1966.1 kV=0.12 Vminpu=0.8 Vmaxpu=1.2 model=1 kW=5.574986239386177 kvar=0.24270326316758836 Phases=1 yearly=com_kw_13291_pu

New Load.load_p1ulv1966_2 conn=wye bus1=p1ulv1966.2 kV=0.12 Vminpu=0.8 Vmaxpu=1.2 model=1 kW=5.574986239386177 kvar=0.24270326316758836 Phases=1 yearly=com_kw_13291_pu

New Load.load_p1ulv1967_1 conn=wye bus1=p1ulv1966.1 kV=0.12 Vminpu=0.8 Vmaxpu=1.2 model=1 kW=3.2230723959373018 kvar=0.13338129174872024 Phases=1 yearly=com_kw_14257_pu

New Load.load_p1ulv1967_2 conn=wye bus1=p1ulv1966.2 kV=0.12 Vminpu=0.8 Vmaxpu=1.2 model=1 kW=3.2230723959373018 kvar=0.13338129174872024 Phases=1 yearly=com_kw_14257_pu

New Load.load_p1ulv1968_1 conn=wye bus1=p1ulv1968.1 kV=0.12 Vminpu=0.8 Vmaxpu=1.2 model=1 kW=1.8775078991445364 kvar=0.511706884096551 Phases=1 yearly=com_kw_14932_pu

New Load.load_p1ulv1968_2 conn=wye bus1=p1ulv1968.2 kV=0.12 Vminpu=0.8 Vmaxpu=1.2 model=1 kW=1.8775078991445364 kvar=0.511706884096551 Phases=1 yearly=com_kw_14932_pu

New Load.load_p1ulv1969_1 conn=wye bus1=p1ulv1969.1 kV=0.12 Vminpu=0.8 Vmaxpu=1.2 model=1 kW=1.2112005619473556 kvar=0.3318024399989204 Phases=1 yearly=res_kw_1194_pu

New Load.load_p1ulv1969_2 conn=wye bus1=p1ulv1969.2 kV=0.12 Vminpu=0.8 Vmaxpu=1.2 model=1 kW=1.2112005619473556 kvar=0.3318024399989204 Phases=1 yearly=res_kw_1194_pu

New Load.load_p1ulv1970_1 conn=wye bus1=p1ulv1970.1 kV=0.12 Vminpu=0.8 Vmaxpu=1.2 model=1 kW=2.27937269045903 kvar=0.6423134931189778 Phases=1 yearly=com_kw_15224_pu

New Load.load_p1ulv1970_2 conn=wye bus1=p1ulv1970.2 kV=0.12 Vminpu=0.8 Vmaxpu=1.2 model=1 kW=2.27937269045903 kvar=0.6423134931189778 Phases=1 yearly=com_kw_15224_pu

New Load.load_p1ulv1971_1 conn=wye bus1=p1ulv1970.1 kV=0.12 Vminpu=0.8 Vmaxpu=1.2 model=1 kW=3.2614858144948595 kvar=1.432421357457426 Phases=1 yearly=res_kw_431_pu

New Load.load_p1ulv1971_2 conn=wye bus1=p1ulv1970.2 kV=0.12 Vminpu=0.8 Vmaxpu=1.2 model=1 kW=3.2614858144948595 kvar=1.432421357457426 Phases=1 yearly=res_kw_431_pu

New Load.load_p1ulv1972_1 conn=wye bus1=p1ulv1972.1 kV=0.12 Vminpu=0.8 Vmaxpu=1.2 model=1 kW=1.8801200674575587 kvar=0.53962653273889 Phases=1 yearly=com_kw_13578_pu

New Load.load_p1ulv1972_2 conn=wye bus1=p1ulv1972.2 kV=0.12 Vminpu=0.8 Vmaxpu=1.2 model=1 kW=1.8801200674575587 kvar=0.53962653273889 Phases=1 yearly=com_kw_13578_pu

New Load.load_p1ulv1973_1 conn=wye bus1=p1ulv1973.1 kV=0.12 Vminpu=0.8 Vmaxpu=1.2 model=1 kW=1.9038750316582675 kvar=0.5392511078342896 Phases=1 yearly=com_kw_13025_pu

New Load.load_p1ulv1973_2 conn=wye bus1=p1ulv1973.2 kV=0.12 Vminpu=0.8 Vmaxpu=1.2 model=1 kW=1.9038750316582675 kvar=0.5392511078342896 Phases=1 yearly=com_kw_13025_pu

New Load.load_p1ulv1974_1 conn=wye bus1=p1ulv1973.1 kV=0.12 Vminpu=0.8 Vmaxpu=1.2 model=1 kW=4.737995147424034 kvar=0.27793880247771546 Phases=1 yearly=com_kw_14277_pu

New Load.load_p1ulv1974_2 conn=wye bus1=p1ulv1973.2 kV=0.12 Vminpu=0.8 Vmaxpu=1.2 model=1 kW=4.737995147424034 kvar=0.27793880247771546 Phases=1 yearly=com_kw_14277_pu

New Load.load_p1ulv1975_1 conn=wye bus1=p1ulv1975.1 kV=0.12 Vminpu=0.8 Vmaxpu=1.2 model=1 kW=4.941260915673429 kvar=0.2872704608510125 Phases=1 yearly=com_kw_15212_pu

New Load.load_p1ulv1975_2 conn=wye bus1=p1ulv1975.2 kV=0.12 Vminpu=0.8 Vmaxpu=1.2 model=1 kW=4.941260915673429 kvar=0.2872704608510125 Phases=1 yearly=com_kw_15212_pu

New Load.load_p1ulv1976_1 conn=wye bus1=p1ulv1976.1 kV=0.12 Vminpu=0.8 Vmaxpu=1.2 model=1 kW=1.8775078991445364 kvar=0.511706884096551 Phases=1 yearly=com_kw_14932_pu

New Load.load_p1ulv1976_2 conn=wye bus1=p1ulv1976.2 kV=0.12 Vminpu=0.8 Vmaxpu=1.2 model=1 kW=1.8775078991445364 kvar=0.511706884096551 Phases=1 yearly=com_kw_14932_pu

New Load.load_p1ulv1977_1 conn=wye bus1=p1ulv1977.1 kV=0.12 Vminpu=0.8 Vmaxpu=1.2 model=1 kW=2.134373343667251 kvar=0.5986590434975299 Phases=1 yearly=com_kw_14612_pu

New Load.load_p1ulv1977_2 conn=wye bus1=p1ulv1977.2 kV=0.12 Vminpu=0.8 Vmaxpu=1.2 model=1 kW=2.134373343667251 kvar=0.5986590434975299 Phases=1 yearly=com_kw_14612_pu

New Load.load_p1ulv1978_1 conn=wye bus1=p1ulv1978.1 kV=0.12 Vminpu=0.8 Vmaxpu=1.2 model=1 kW=2.3846609446068823 kvar=0.7423017332736356 Phases=1 yearly=com_kw_14117_pu

New Load.load_p1ulv1978_2 conn=wye bus1=p1ulv1978.2 kV=0.12 Vminpu=0.8 Vmaxpu=1.2 model=1 kW=2.3846609446068823 kvar=0.7423017332736356 Phases=1 yearly=com_kw_14117_pu

New Load.load_p1ulv1979_1 conn=wye bus1=p1ulv1979.1 kV=0.12 Vminpu=0.8 Vmaxpu=1.2 model=1 kW=5.503617962261267 kvar=0.25931014748492 Phases=1 yearly=com_kw_14123_pu

New Load.load_p1ulv1979_2 conn=wye bus1=p1ulv1979.2 kV=0.12 Vminpu=0.8 Vmaxpu=1.2 model=1 kW=5.503617962261267 kvar=0.25931014748492 Phases=1 yearly=com_kw_14123_pu

New Load.load_p1ulv1980_1 conn=wye bus1=p1ulv1980.1 kV=0.12 Vminpu=0.8 Vmaxpu=1.2 model=1 kW=1.8914832317680952 kvar=0.4701288429802831 Phases=1 yearly=com_kw_13018_pu

New Load.load_p1ulv1980_2 conn=wye bus1=p1ulv1980.2 kV=0.12 Vminpu=0.8 Vmaxpu=1.2 model=1 kW=1.8914832317680952 kvar=0.4701288429802831 Phases=1 yearly=com_kw_13018_pu

New Load.load_p1ulv1981_1 conn=wye bus1=p1ulv1981.1 kV=0.12 Vminpu=0.8 Vmaxpu=1.2 model=1 kW=2.134373343667251 kvar=0.5986590434975299 Phases=1 yearly=com_kw_14612_pu

New Load.load_p1ulv1981_2 conn=wye bus1=p1ulv1981.2 kV=0.12 Vminpu=0.8 Vmaxpu=1.2 model=1 kW=2.134373343667251 kvar=0.5986590434975299 Phases=1 yearly=com_kw_14612_pu

New Load.load_p1ulv1982_1 conn=wye bus1=p1ulv1982.1 kV=0.12 Vminpu=0.8 Vmaxpu=1.2 model=1 kW=13.251431311430247 kvar=0.1493407165487586 Phases=1 yearly=com_kw_14976_pu

New Load.load_p1ulv1982_2 conn=wye bus1=p1ulv1982.2 kV=0.12 Vminpu=0.8 Vmaxpu=1.2 model=1 kW=13.251431311430247 kvar=0.1493407165487586 Phases=1 yearly=com_kw_14976_pu

New Load.load_p1ulv1983_1 conn=wye bus1=p1ulv1983.1 kV=0.12 Vminpu=0.8 Vmaxpu=1.2 model=1 kW=2.0313586656693827 kvar=0.5942635047770736 Phases=1 yearly=com_kw_13386_pu

New Load.load_p1ulv1983_2 conn=wye bus1=p1ulv1983.2 kV=0.12 Vminpu=0.8 Vmaxpu=1.2 model=1 kW=2.0313586656693827 kvar=0.5942635047770736 Phases=1 yearly=com_kw_13386_pu

New Load.load_p1ulv1984_1 conn=wye bus1=p1ulv1984.1 kV=0.12 Vminpu=0.8 Vmaxpu=1.2 model=1 kW=1.8775078991445364 kvar=0.511706884096551 Phases=1 yearly=com_kw_14932_pu

New Load.load_p1ulv1984_2 conn=wye bus1=p1ulv1984.2 kV=0.12 Vminpu=0.8 Vmaxpu=1.2 model=1 kW=1.8775078991445364 kvar=0.511706884096551 Phases=1 yearly=com_kw_14932_pu

New Load.load_p1ulv1985_1 conn=wye bus1=p1ulv1985.1 kV=0.12 Vminpu=0.8 Vmaxpu=1.2 model=1 kW=2.0380250144225394 kvar=0.5847764991219453 Phases=1 yearly=com_kw_15124_pu

New Load.load_p1ulv1985_2 conn=wye bus1=p1ulv1985.2 kV=0.12 Vminpu=0.8 Vmaxpu=1.2 model=1 kW=2.0380250144225394 kvar=0.5847764991219453 Phases=1 yearly=com_kw_15124_pu

New Load.load_p1ulv1986_1 conn=wye bus1=p1ulv1986.1 kV=0.12 Vminpu=0.8 Vmaxpu=1.2 model=1 kW=13.251431311430247 kvar=0.1493407165487586 Phases=1 yearly=com_kw_14976_pu

New Load.load_p1ulv1986_2 conn=wye bus1=p1ulv1986.2 kV=0.12 Vminpu=0.8 Vmaxpu=1.2 model=1 kW=13.251431311430247 kvar=0.1493407165487586 Phases=1 yearly=com_kw_14976_pu

New Load.load_p1ulv1987_1 conn=wye bus1=p1ulv1987.1 kV=0.12 Vminpu=0.8 Vmaxpu=1.2 model=1 kW=2.242446440461792 kvar=0.599196925582727 Phases=1 yearly=com_kw_14904_pu

New Load.load_p1ulv1987_2 conn=wye bus1=p1ulv1987.2 kV=0.12 Vminpu=0.8 Vmaxpu=1.2 model=1 kW=2.242446440461792 kvar=0.599196925582727 Phases=1 yearly=com_kw_14904_pu

New Load.load_p1ulv1988_1 conn=wye bus1=p1ulv1987.1 kV=0.12 Vminpu=0.8 Vmaxpu=1.2 model=1 kW=5.096065176353652 kvar=0.20326988307277757 Phases=1 yearly=com_kw_14723_pu

New Load.load_p1ulv1988_2 conn=wye bus1=p1ulv1987.2 kV=0.12 Vminpu=0.8 Vmaxpu=1.2 model=1 kW=5.096065176353652 kvar=0.20326988307277757 Phases=1 yearly=com_kw_14723_pu

New Load.load_p1ulv1989_1 conn=wye bus1=p1ulv1989.1 kV=0.12 Vminpu=0.8 Vmaxpu=1.2 model=1 kW=3.2614858144948595 kvar=1.432421357457426 Phases=1 yearly=res_kw_431_pu

New Load.load_p1ulv1989_2 conn=wye bus1=p1ulv1989.2 kV=0.12 Vminpu=0.8 Vmaxpu=1.2 model=1 kW=3.2614858144948595 kvar=1.432421357457426 Phases=1 yearly=res_kw_431_pu

New Load.load_p1ulv1990_1 conn=wye bus1=p1ulv1990.1 kV=0.12 Vminpu=0.8 Vmaxpu=1.2 model=1 kW=1.8914832317680952 kvar=0.4701288429802831 Phases=1 yearly=com_kw_13018_pu

New Load.load_p1ulv1990_2 conn=wye bus1=p1ulv1990.2 kV=0.12 Vminpu=0.8 Vmaxpu=1.2 model=1 kW=1.8914832317680952 kvar=0.4701288429802831 Phases=1 yearly=com_kw_13018_pu

New Load.load_p1ulv1991_1 conn=wye bus1=p1ulv1991.1 kV=0.12 Vminpu=0.8 Vmaxpu=1.2 model=1 kW=1.8914832317680952 kvar=0.4701288429802831 Phases=1 yearly=com_kw_13018_pu

New Load.load_p1ulv1991_2 conn=wye bus1=p1ulv1991.2 kV=0.12 Vminpu=0.8 Vmaxpu=1.2 model=1 kW=1.8914832317680952 kvar=0.4701288429802831 Phases=1 yearly=com_kw_13018_pu

New Load.load_p1ulv1992_1 conn=wye bus1=p1ulv1992.1 kV=0.12 Vminpu=0.8 Vmaxpu=1.2 model=1 kW=5.214317910575264 kvar=0.26498403593368286 Phases=1 yearly=com_kw_13828_pu

New Load.load_p1ulv1992_2 conn=wye bus1=p1ulv1992.2 kV=0.12 Vminpu=0.8 Vmaxpu=1.2 model=1 kW=5.214317910575264 kvar=0.26498403593368286 Phases=1 yearly=com_kw_13828_pu

New Load.load_p1ulv1993_1 conn=wye bus1=p1ulv1993.1 kV=0.12 Vminpu=0.8 Vmaxpu=1.2 model=1 kW=1.8914832317680952 kvar=0.4701288429802831 Phases=1 yearly=com_kw_13018_pu

New Load.load_p1ulv1993_2 conn=wye bus1=p1ulv1993.2 kV=0.12 Vminpu=0.8 Vmaxpu=1.2 model=1 kW=1.8914832317680952 kvar=0.4701288429802831 Phases=1 yearly=com_kw_13018_pu

New Load.load_p1ulv1994_1 conn=wye bus1=p1ulv1994.1 kV=0.12 Vminpu=0.8 Vmaxpu=1.2 model=1 kW=1.8914832317680952 kvar=0.4701288429802831 Phases=1 yearly=com_kw_13018_pu

New Load.load_p1ulv1994_2 conn=wye bus1=p1ulv1994.2 kV=0.12 Vminpu=0.8 Vmaxpu=1.2 model=1 kW=1.8914832317680952 kvar=0.4701288429802831 Phases=1 yearly=com_kw_13018_pu

New Load.load_p1ulv1995_1 conn=wye bus1=p1ulv1995.1 kV=0.12 Vminpu=0.8 Vmaxpu=1.2 model=1 kW=1.8914832317680952 kvar=0.4701288429802831 Phases=1 yearly=com_kw_13018_pu

New Load.load_p1ulv1995_2 conn=wye bus1=p1ulv1995.2 kV=0.12 Vminpu=0.8 Vmaxpu=1.2 model=1 kW=1.8914832317680952 kvar=0.4701288429802831 Phases=1 yearly=com_kw_13018_pu

New Load.load_p1ulv1996_1 conn=wye bus1=p1ulv1996.1 kV=0.12 Vminpu=0.8 Vmaxpu=1.2 model=1 kW=5.574986239386177 kvar=0.24270326316758836 Phases=1 yearly=com_kw_13291_pu

New Load.load_p1ulv1996_2 conn=wye bus1=p1ulv1996.2 kV=0.12 Vminpu=0.8 Vmaxpu=1.2 model=1 kW=5.574986239386177 kvar=0.24270326316758836 Phases=1 yearly=com_kw_13291_pu

New Load.load_p1ulv1997_1 conn=wye bus1=p1ulv1997.1 kV=0.12 Vminpu=0.8 Vmaxpu=1.2 model=1 kW=13.251431311430247 kvar=0.1493407165487586 Phases=1 yearly=com_kw_14976_pu

New Load.load_p1ulv1997_2 conn=wye bus1=p1ulv1997.2 kV=0.12 Vminpu=0.8 Vmaxpu=1.2 model=1 kW=13.251431311430247 kvar=0.1493407165487586 Phases=1 yearly=com_kw_14976_pu

New Load.load_p1ulv1998_1 conn=wye bus1=p1ulv1997.1 kV=0.12 Vminpu=0.8 Vmaxpu=1.2 model=1 kW=1.8914832317680952 kvar=0.4701288429802831 Phases=1 yearly=com_kw_13018_pu

New Load.load_p1ulv1998_2 conn=wye bus1=p1ulv1997.2 kV=0.12 Vminpu=0.8 Vmaxpu=1.2 model=1 kW=1.8914832317680952 kvar=0.4701288429802831 Phases=1 yearly=com_kw_13018_pu

New Load.load_p1ulv1999_1 conn=wye bus1=p1ulv1999.1 kV=0.12 Vminpu=0.8 Vmaxpu=1.2 model=1 kW=1.8775078991445364 kvar=0.511706884096551 Phases=1 yearly=com_kw_14932_pu

New Load.load_p1ulv1999_2 conn=wye bus1=p1ulv1999.2 kV=0.12 Vminpu=0.8 Vmaxpu=1.2 model=1 kW=1.8775078991445364 kvar=0.511706884096551 Phases=1 yearly=com_kw_14932_pu

New Load.load_p1ulv2000_1 conn=wye bus1=p1ulv1999.1 kV=0.12 Vminpu=0.8 Vmaxpu=1.2 model=1 kW=1.8914832317680952 kvar=0.4701288429802831 Phases=1 yearly=com_kw_13018_pu

New Load.load_p1ulv2000_2 conn=wye bus1=p1ulv1999.2 kV=0.12 Vminpu=0.8 Vmaxpu=1.2 model=1 kW=1.8914832317680952 kvar=0.4701288429802831 Phases=1 yearly=com_kw_13018_pu

New Load.load_p1ulv2001_1 conn=wye bus1=p1ulv2001.1 kV=0.12 Vminpu=0.8 Vmaxpu=1.2 model=1 kW=1.8914832317680952 kvar=0.4701288429802831 Phases=1 yearly=com_kw_13018_pu

New Load.load_p1ulv2001_2 conn=wye bus1=p1ulv2001.2 kV=0.12 Vminpu=0.8 Vmaxpu=1.2 model=1 kW=1.8914832317680952 kvar=0.4701288429802831 Phases=1 yearly=com_kw_13018_pu

New Load.load_p1ulv2002_1 conn=wye bus1=p1ulv2002.1 kV=0.12 Vminpu=0.8 Vmaxpu=1.2 model=1 kW=0.17638855280953816 kvar=0.11785766630597205 Phases=1 yearly=res_kw_1229_pu

New Load.load_p1ulv2002_2 conn=wye bus1=p1ulv2002.2 kV=0.12 Vminpu=0.8 Vmaxpu=1.2 model=1 kW=0.17638855280953816 kvar=0.11785766630597205 Phases=1 yearly=res_kw_1229_pu

New Load.load_p1ulv2003_1 conn=wye bus1=p1ulv2003.1 kV=0.12 Vminpu=0.8 Vmaxpu=1.2 model=1 kW=2.3846609446068823 kvar=0.7423017332736356 Phases=1 yearly=com_kw_14117_pu

New Load.load_p1ulv2003_2 conn=wye bus1=p1ulv2003.2 kV=0.12 Vminpu=0.8 Vmaxpu=1.2 model=1 kW=2.3846609446068823 kvar=0.7423017332736356 Phases=1 yearly=com_kw_14117_pu

New Load.load_p1ulv2004_1 conn=wye bus1=p1ulv2004.1 kV=0.12 Vminpu=0.8 Vmaxpu=1.2 model=1 kW=1.8914832317680952 kvar=0.4701288429802831 Phases=1 yearly=com_kw_13018_pu

New Load.load_p1ulv2004_2 conn=wye bus1=p1ulv2004.2 kV=0.12 Vminpu=0.8 Vmaxpu=1.2 model=1 kW=1.8914832317680952 kvar=0.4701288429802831 Phases=1 yearly=com_kw_13018_pu

New Load.load_p1ulv2005_1 conn=wye bus1=p1ulv2005.1 kV=0.12 Vminpu=0.8 Vmaxpu=1.2 model=1 kW=2.5979078005670297 kvar=0.7783347543086586 Phases=1 yearly=com_kw_13164_pu

New Load.load_p1ulv2005_2 conn=wye bus1=p1ulv2005.2 kV=0.12 Vminpu=0.8 Vmaxpu=1.2 model=1 kW=2.5979078005670297 kvar=0.7783347543086586 Phases=1 yearly=com_kw_13164_pu

New Load.load_p1ulv2006_1 conn=wye bus1=p1ulv2006.1 kV=0.12 Vminpu=0.8 Vmaxpu=1.2 model=1 kW=3.2230723959373018 kvar=0.13338129174872024 Phases=1 yearly=com_kw_14257_pu

New Load.load_p1ulv2006_2 conn=wye bus1=p1ulv2006.2 kV=0.12 Vminpu=0.8 Vmaxpu=1.2 model=1 kW=3.2230723959373018 kvar=0.13338129174872024 Phases=1 yearly=com_kw_14257_pu

New Load.load_p1ulv2007_1 conn=wye bus1=p1ulv2007.1 kV=0.12 Vminpu=0.8 Vmaxpu=1.2 model=1 kW=5.326168943521982 kvar=0.2063776929599704 Phases=1 yearly=com_kw_14741_pu

New Load.load_p1ulv2007_2 conn=wye bus1=p1ulv2007.2 kV=0.12 Vminpu=0.8 Vmaxpu=1.2 model=1 kW=5.326168943521982 kvar=0.2063776929599704 Phases=1 yearly=com_kw_14741_pu

New Load.load_p1ulv2008_1 conn=wye bus1=p1ulv2008.1 kV=0.12 Vminpu=0.8 Vmaxpu=1.2 model=1 kW=5.214317910575264 kvar=0.26498403593368286 Phases=1 yearly=com_kw_13828_pu

New Load.load_p1ulv2008_2 conn=wye bus1=p1ulv2008.2 kV=0.12 Vminpu=0.8 Vmaxpu=1.2 model=1 kW=5.214317910575264 kvar=0.26498403593368286 Phases=1 yearly=com_kw_13828_pu

New Load.load_p1ulv2009_1 conn=wye bus1=p1ulv2009.1 kV=0.12 Vminpu=0.8 Vmaxpu=1.2 model=1 kW=5.096065176353652 kvar=0.20326988307277757 Phases=1 yearly=com_kw_14723_pu

New Load.load_p1ulv2009_2 conn=wye bus1=p1ulv2009.2 kV=0.12 Vminpu=0.8 Vmaxpu=1.2 model=1 kW=5.096065176353652 kvar=0.20326988307277757 Phases=1 yearly=com_kw_14723_pu

New Load.load_p1ulv3249_1 conn=wye bus1=p1ulv3249.1 kV=0.12 Vminpu=0.8 Vmaxpu=1.2 model=1 kW=8.038199047739793 kvar=1.8120887952584321 Phases=1 yearly=res_kw_169_pu

New Load.load_p1ulv3249_2 conn=wye bus1=p1ulv3249.2 kV=0.12 Vminpu=0.8 Vmaxpu=1.2 model=1 kW=8.038199047739793 kvar=1.8120887952584321 Phases=1 yearly=res_kw_169_pu

New Load.load_p1ulv3250_1 conn=wye bus1=p1ulv3250.1 kV=0.12 Vminpu=0.8 Vmaxpu=1.2 model=1 kW=2.1376631749204993 kvar=0.6218033466021168 Phases=1 yearly=res_kw_93_pu

New Load.load_p1ulv3250_2 conn=wye bus1=p1ulv3250.2 kV=0.12 Vminpu=0.8 Vmaxpu=1.2 model=1 kW=2.1376631749204993 kvar=0.6218033466021168 Phases=1 yearly=res_kw_93_pu

New Load.load_p1ulv3251_1 conn=wye bus1=p1ulv3251.1 kV=0.12 Vminpu=0.8 Vmaxpu=1.2 model=1 kW=5.991917116566147 kvar=1.6692124001399427 Phases=1 yearly=res_kw_314_pu

New Load.load_p1ulv3251_2 conn=wye bus1=p1ulv3251.2 kV=0.12 Vminpu=0.8 Vmaxpu=1.2 model=1 kW=5.991917116566147 kvar=1.6692124001399427 Phases=1 yearly=res_kw_314_pu

New Load.load_p1ulv3252_1 conn=wye bus1=p1ulv3252.1 kV=0.12 Vminpu=0.8 Vmaxpu=1.2 model=1 kW=1.8636614682402992 kvar=0.5015179682387616 Phases=1 yearly=res_kw_532_pu

New Load.load_p1ulv3252_2 conn=wye bus1=p1ulv3252.2 kV=0.12 Vminpu=0.8 Vmaxpu=1.2 model=1 kW=1.8636614682402992 kvar=0.5015179682387616 Phases=1 yearly=res_kw_532_pu

New Load.load_p1ulv3253_1 conn=wye bus1=p1ulv3253.1 kV=0.12 Vminpu=0.8 Vmaxpu=1.2 model=1 kW=7.820072877358693 kvar=1.759853089528969 Phases=1 yearly=res_kw_97_pu

New Load.load_p1ulv3253_2 conn=wye bus1=p1ulv3253.2 kV=0.12 Vminpu=0.8 Vmaxpu=1.2 model=1 kW=7.820072877358693 kvar=1.759853089528969 Phases=1 yearly=res_kw_97_pu

New Load.load_p1ulv3764_1 conn=wye bus1=p1ulv3764.1 kV=0.12 Vminpu=0.8 Vmaxpu=1.2 model=1 kW=3.514038245319737 kvar=0.28269583311839436 Phases=1 yearly=com_kw_14842_pu

New Load.load_p1ulv3764_2 conn=wye bus1=p1ulv3764.2 kV=0.12 Vminpu=0.8 Vmaxpu=1.2 model=1 kW=3.514038245319737 kvar=0.28269583311839436 Phases=1 yearly=com_kw_14842_pu

New Load.load_p1ulv3765_1 conn=wye bus1=p1ulv3764.1 kV=0.12 Vminpu=0.8 Vmaxpu=1.2 model=1 kW=5.613655149523946 kvar=1.2146178612909586 Phases=1 yearly=com_kw_12903_pu

New Load.load_p1ulv3765_2 conn=wye bus1=p1ulv3764.2 kV=0.12 Vminpu=0.8 Vmaxpu=1.2 model=1 kW=5.613655149523946 kvar=1.2146178612909586 Phases=1 yearly=com_kw_12903_pu

New Load.load_p1ulv3766_1 conn=wye bus1=p1ulv3766.1 kV=0.12 Vminpu=0.8 Vmaxpu=1.2 model=1 kW=3.013000258801837 kvar=0.6644912672412583 Phases=1 yearly=com_kw_13887_pu

New Load.load_p1ulv3766_2 conn=wye bus1=p1ulv3766.2 kV=0.12 Vminpu=0.8 Vmaxpu=1.2 model=1 kW=3.013000258801837 kvar=0.6644912672412583 Phases=1 yearly=com_kw_13887_pu

New Load.load_p1ulv3767_1 conn=wye bus1=p1ulv3767.1 kV=0.12 Vminpu=0.8 Vmaxpu=1.2 model=1 kW=6.847378896370207 kvar=0.2857422414791666 Phases=1 yearly=com_kw_14382_pu

New Load.load_p1ulv3767_2 conn=wye bus1=p1ulv3767.2 kV=0.12 Vminpu=0.8 Vmaxpu=1.2 model=1 kW=6.847378896370207 kvar=0.2857422414791666 Phases=1 yearly=com_kw_14382_pu

New Load.load_p1ulv3768_1 conn=wye bus1=p1ulv3768.1 kV=0.12 Vminpu=0.8 Vmaxpu=1.2 model=1 kW=13.793674087523804 kvar=0.8506323916315093 Phases=1 yearly=com_kw_14989_pu

New Load.load_p1ulv3768_2 conn=wye bus1=p1ulv3768.2 kV=0.12 Vminpu=0.8 Vmaxpu=1.2 model=1 kW=13.793674087523804 kvar=0.8506323916315093 Phases=1 yearly=com_kw_14989_pu

New Load.load_p1ulv3769_1 conn=wye bus1=p1ulv3769.1 kV=0.12 Vminpu=0.8 Vmaxpu=1.2 model=1 kW=6.847378896370207 kvar=0.2857422414791666 Phases=1 yearly=com_kw_14382_pu

New Load.load_p1ulv3769_2 conn=wye bus1=p1ulv3769.2 kV=0.12 Vminpu=0.8 Vmaxpu=1.2 model=1 kW=6.847378896370207 kvar=0.2857422414791666 Phases=1 yearly=com_kw_14382_pu

New Load.load_p1ulv3770 conn=wye bus1=p1ulv3770.1.2.3 kV=0.48 Vminpu=0.8 Vmaxpu=1.2 model=1 kW=41.71615059935428 kvar=11.164020019318317 Phases=3 yearly=com_kw_14121_pu

New Load.load_p1ulv3771_1 conn=wye bus1=p1ulv3771.1 kV=0.12 Vminpu=0.8 Vmaxpu=1.2 model=1 kW=8.945277872082505 kvar=0.7656229248796237 Phases=1 yearly=com_kw_15010_pu

New Load.load_p1ulv3771_2 conn=wye bus1=p1ulv3771.2 kV=0.12 Vminpu=0.8 Vmaxpu=1.2 model=1 kW=8.945277872082505 kvar=0.7656229248796237 Phases=1 yearly=com_kw_15010_pu

New Load.load_p1ulv3772 conn=wye bus1=p1ulv3772.1.2.3 kV=0.48 Vminpu=0.8 Vmaxpu=1.2 model=1 kW=27.036974768262574 kvar=2.230688488875481 Phases=3 yearly=com_kw_13219_pu

New Load.load_p1ulv4919_1 conn=wye bus1=p1ulv4919.1 kV=0.12 Vminpu=0.8 Vmaxpu=1.2 model=1 kW=6.136100367362728 kvar=1.4521187609701354 Phases=1 yearly=res_kw_362_pu

New Load.load_p1ulv4919_2 conn=wye bus1=p1ulv4919.2 kV=0.12 Vminpu=0.8 Vmaxpu=1.2 model=1 kW=6.136100367362728 kvar=1.4521187609701354 Phases=1 yearly=res_kw_362_pu

New Load.load_p1ulv4921_1 conn=wye bus1=p1ulv4921.1 kV=0.12 Vminpu=0.8 Vmaxpu=1.2 model=1 kW=4.666080754031652 kvar=0.9704814918535188 Phases=1 yearly=res_kw_280_pu

New Load.load_p1ulv4921_2 conn=wye bus1=p1ulv4921.2 kV=0.12 Vminpu=0.8 Vmaxpu=1.2 model=1 kW=4.666080754031652 kvar=0.9704814918535188 Phases=1 yearly=res_kw_280_pu

New Load.load_p1ulv4922_1 conn=wye bus1=p1ulv4922.1 kV=0.12 Vminpu=0.8 Vmaxpu=1.2 model=1 kW=3.789884331965197 kvar=1.0036576715582408 Phases=1 yearly=res_kw_670_pu

New Load.load_p1ulv4922_2 conn=wye bus1=p1ulv4922.2 kV=0.12 Vminpu=0.8 Vmaxpu=1.2 model=1 kW=3.789884331965197 kvar=1.0036576715582408 Phases=1 yearly=res_kw_670_pu

New Load.load_p1ulv4923_1 conn=wye bus1=p1ulv4923.1 kV=0.12 Vminpu=0.8 Vmaxpu=1.2 model=1 kW=4.817618468644212 kvar=1.1350426223715635 Phases=1 yearly=res_kw_843_pu

New Load.load_p1ulv4923_2 conn=wye bus1=p1ulv4923.2 kV=0.12 Vminpu=0.8 Vmaxpu=1.2 model=1 kW=4.817618468644212 kvar=1.1350426223715635 Phases=1 yearly=res_kw_843_pu

New Load.load_p1ulv4925_1 conn=wye bus1=p1ulv4925.1 kV=0.12 Vminpu=0.8 Vmaxpu=1.2 model=1 kW=6.727252203449795 kvar=1.9067277455995406 Phases=1 yearly=res_kw_822_pu

New Load.load_p1ulv4925_2 conn=wye bus1=p1ulv4925.2 kV=0.12 Vminpu=0.8 Vmaxpu=1.2 model=1 kW=6.727252203449795 kvar=1.9067277455995406 Phases=1 yearly=res_kw_822_pu

New Load.load_p1ulv4926_1 conn=wye bus1=p1ulv4926.1 kV=0.12 Vminpu=0.8 Vmaxpu=1.2 model=1 kW=2.40000228705824 kvar=1.0173787262529668 Phases=1 yearly=res_kw_1205_pu

New Load.load_p1ulv4926_2 conn=wye bus1=p1ulv4926.2 kV=0.12 Vminpu=0.8 Vmaxpu=1.2 model=1 kW=2.40000228705824 kvar=1.0173787262529668 Phases=1 yearly=res_kw_1205_pu

New Load.load_p1ulv4927_1 conn=wye bus1=p1ulv4927.1 kV=0.12 Vminpu=0.8 Vmaxpu=1.2 model=1 kW=2.4402285312138985 kvar=0.9342273883677934 Phases=1 yearly=res_kw_409_pu

New Load.load_p1ulv4927_2 conn=wye bus1=p1ulv4927.2 kV=0.12 Vminpu=0.8 Vmaxpu=1.2 model=1 kW=2.4402285312138985 kvar=0.9342273883677934 Phases=1 yearly=res_kw_409_pu

New Load.load_p1ulv4928_1 conn=wye bus1=p1ulv4928.1 kV=0.12 Vminpu=0.8 Vmaxpu=1.2 model=1 kW=7.259772519581312 kvar=1.3210086815250959 Phases=1 yearly=res_kw_128_pu

New Load.load_p1ulv4928_2 conn=wye bus1=p1ulv4928.2 kV=0.12 Vminpu=0.8 Vmaxpu=1.2 model=1 kW=7.259772519581312 kvar=1.3210086815250959 Phases=1 yearly=res_kw_128_pu

New Load.load_p1ulv4929_1 conn=wye bus1=p1ulv4929.1 kV=0.12 Vminpu=0.8 Vmaxpu=1.2 model=1 kW=8.020736002000627 kvar=0.8077597125403054 Phases=1 yearly=res_kw_411_pu

New Load.load_p1ulv4929_2 conn=wye bus1=p1ulv4929.2 kV=0.12 Vminpu=0.8 Vmaxpu=1.2 model=1 kW=8.020736002000627 kvar=0.8077597125403054 Phases=1 yearly=res_kw_411_pu

New Load.load_p1ulv4931_1 conn=wye bus1=p1ulv4931.1 kV=0.12 Vminpu=0.8 Vmaxpu=1.2 model=1 kW=3.6844020253442458 kvar=1.4451491397155931 Phases=1 yearly=res_kw_1258_pu

New Load.load_p1ulv4931_2 conn=wye bus1=p1ulv4931.2 kV=0.12 Vminpu=0.8 Vmaxpu=1.2 model=1 kW=3.6844020253442458 kvar=1.4451491397155931 Phases=1 yearly=res_kw_1258_pu

New Load.load_p1ulv4932_1 conn=wye bus1=p1ulv4932.1 kV=0.12 Vminpu=0.8 Vmaxpu=1.2 model=1 kW=2.40000228705824 kvar=1.0173787262529668 Phases=1 yearly=res_kw_1205_pu

New Load.load_p1ulv4932_2 conn=wye bus1=p1ulv4932.2 kV=0.12 Vminpu=0.8 Vmaxpu=1.2 model=1 kW=2.40000228705824 kvar=1.0173787262529668 Phases=1 yearly=res_kw_1205_pu

New Load.load_p1ulv4933_1 conn=wye bus1=p1ulv4933.1 kV=0.12 Vminpu=0.8 Vmaxpu=1.2 model=1 kW=4.78815623948431 kvar=1.2110296754961107 Phases=1 yearly=res_kw_842_pu

New Load.load_p1ulv4933_2 conn=wye bus1=p1ulv4933.2 kV=0.12 Vminpu=0.8 Vmaxpu=1.2 model=1 kW=4.78815623948431 kvar=1.2110296754961107 Phases=1 yearly=res_kw_842_pu

New Load.load_p1ulv4935_1 conn=wye bus1=p1ulv4935.1 kV=0.12 Vminpu=0.8 Vmaxpu=1.2 model=1 kW=5.436729579526792 kvar=1.2488470964899614 Phases=1 yearly=res_kw_454_pu

New Load.load_p1ulv4935_2 conn=wye bus1=p1ulv4935.2 kV=0.12 Vminpu=0.8 Vmaxpu=1.2 model=1 kW=5.436729579526792 kvar=1.2488470964899614 Phases=1 yearly=res_kw_454_pu

New Load.load_p1ulv4936_1 conn=wye bus1=p1ulv4936.1 kV=0.12 Vminpu=0.8 Vmaxpu=1.2 model=1 kW=4.198936522204728 kvar=0.9501139000968819 Phases=1 yearly=res_kw_229_pu

New Load.load_p1ulv4936_2 conn=wye bus1=p1ulv4936.2 kV=0.12 Vminpu=0.8 Vmaxpu=1.2 model=1 kW=4.198936522204728 kvar=0.9501139000968819 Phases=1 yearly=res_kw_229_pu

New Load.load_p1ulv4937_1 conn=wye bus1=p1ulv4937.1 kV=0.12 Vminpu=0.8 Vmaxpu=1.2 model=1 kW=3.469755020859998 kvar=0.8941520384931253 Phases=1 yearly=res_kw_4_pu

New Load.load_p1ulv4937_2 conn=wye bus1=p1ulv4937.2 kV=0.12 Vminpu=0.8 Vmaxpu=1.2 model=1 kW=3.469755020859998 kvar=0.8941520384931253 Phases=1 yearly=res_kw_4_pu

New Load.load_p1ulv4938_1 conn=wye bus1=p1ulv4938.1 kV=0.12 Vminpu=0.8 Vmaxpu=1.2 model=1 kW=3.8029744718879392 kvar=1.1462670306842289 Phases=1 yearly=res_kw_263_pu

New Load.load_p1ulv4938_2 conn=wye bus1=p1ulv4938.2 kV=0.12 Vminpu=0.8 Vmaxpu=1.2 model=1 kW=3.8029744718879392 kvar=1.1462670306842289 Phases=1 yearly=res_kw_263_pu

New Load.load_p1ulv4939_1 conn=wye bus1=p1ulv4939.1 kV=0.12 Vminpu=0.8 Vmaxpu=1.2 model=1 kW=4.788649591238137 kvar=1.023651375705972 Phases=1 yearly=res_kw_512_pu

New Load.load_p1ulv4939_2 conn=wye bus1=p1ulv4939.2 kV=0.12 Vminpu=0.8 Vmaxpu=1.2 model=1 kW=4.788649591238137 kvar=1.023651375705972 Phases=1 yearly=res_kw_512_pu

New Load.load_p1ulv4941_1 conn=wye bus1=p1ulv4941.1 kV=0.12 Vminpu=0.8 Vmaxpu=1.2 model=1 kW=3.3641909207712115 kvar=0.9284266244461494 Phases=1 yearly=res_kw_523_pu

New Load.load_p1ulv4941_2 conn=wye bus1=p1ulv4941.2 kV=0.12 Vminpu=0.8 Vmaxpu=1.2 model=1 kW=3.3641909207712115 kvar=0.9284266244461494 Phases=1 yearly=res_kw_523_pu

New Load.load_p1ulv4942_1 conn=wye bus1=p1ulv4942.1 kV=0.12 Vminpu=0.8 Vmaxpu=1.2 model=1 kW=2.456740089175818 kvar=0.4991709793701422 Phases=1 yearly=res_kw_331_pu

New Load.load_p1ulv4942_2 conn=wye bus1=p1ulv4942.2 kV=0.12 Vminpu=0.8 Vmaxpu=1.2 model=1 kW=2.456740089175818 kvar=0.4991709793701422 Phases=1 yearly=res_kw_331_pu

New Load.load_p1ulv4943_1 conn=wye bus1=p1ulv4943.1 kV=0.12 Vminpu=0.8 Vmaxpu=1.2 model=1 kW=3.469521951913567 kvar=0.9490620687569232 Phases=1 yearly=res_kw_825_pu

New Load.load_p1ulv4943_2 conn=wye bus1=p1ulv4943.2 kV=0.12 Vminpu=0.8 Vmaxpu=1.2 model=1 kW=3.469521951913567 kvar=0.9490620687569232 Phases=1 yearly=res_kw_825_pu
