New Load.load_p1ulv3521_1 conn=wye bus1=p1ulv3521.1 kV=0.12 Vminpu=0.8 Vmaxpu=1.2 model=1 kW=9.341738473663403 kvar=2.018548151169967 Phases=1 yearly=res_kw_504_pu

New Load.load_p1ulv3521_2 conn=wye bus1=p1ulv3521.2 kV=0.12 Vminpu=0.8 Vmaxpu=1.2 model=1 kW=9.341738473663403 kvar=2.018548151169967 Phases=1 yearly=res_kw_504_pu

New Load.load_p1ulv3522_1 conn=wye bus1=p1ulv3522.1 kV=0.12 Vminpu=0.8 Vmaxpu=1.2 model=1 kW=3.8748715750127736 kvar=1.5614372175332516 Phases=1 yearly=res_kw_517_pu

New Load.load_p1ulv3522_2 conn=wye bus1=p1ulv3522.2 kV=0.12 Vminpu=0.8 Vmaxpu=1.2 model=1 kW=3.8748715750127736 kvar=1.5614372175332516 Phases=1 yearly=res_kw_517_pu

New Load.load_p1ulv3523_1 conn=wye bus1=p1ulv3523.1 kV=0.12 Vminpu=0.8 Vmaxpu=1.2 model=1 kW=5.991917116566147 kvar=1.6692124001399427 Phases=1 yearly=res_kw_314_pu

New Load.load_p1ulv3523_2 conn=wye bus1=p1ulv3523.2 kV=0.12 Vminpu=0.8 Vmaxpu=1.2 model=1 kW=5.991917116566147 kvar=1.6692124001399427 Phases=1 yearly=res_kw_314_pu

New Load.load_p1ulv3524_1 conn=wye bus1=p1ulv3524.1 kV=0.12 Vminpu=0.8 Vmaxpu=1.2 model=1 kW=4.315153527476089 kvar=1.1500690460008876 Phases=1 yearly=res_kw_305_pu

New Load.load_p1ulv3524_2 conn=wye bus1=p1ulv3524.2 kV=0.12 Vminpu=0.8 Vmaxpu=1.2 model=1 kW=4.315153527476089 kvar=1.1500690460008876 Phases=1 yearly=res_kw_305_pu

New Load.load_p1ulv3525_1 conn=wye bus1=p1ulv3525.1 kV=0.12 Vminpu=0.8 Vmaxpu=1.2 model=1 kW=5.4313165050257775 kvar=1.3233518473888222 Phases=1 yearly=res_kw_355_pu

New Load.load_p1ulv3525_2 conn=wye bus1=p1ulv3525.2 kV=0.12 Vminpu=0.8 Vmaxpu=1.2 model=1 kW=5.4313165050257775 kvar=1.3233518473888222 Phases=1 yearly=res_kw_355_pu

New Load.load_p1ulv3526_1 conn=wye bus1=p1ulv3526.1 kV=0.12 Vminpu=0.8 Vmaxpu=1.2 model=1 kW=4.788649591238137 kvar=1.023651375705972 Phases=1 yearly=res_kw_512_pu

New Load.load_p1ulv3526_2 conn=wye bus1=p1ulv3526.2 kV=0.12 Vminpu=0.8 Vmaxpu=1.2 model=1 kW=4.788649591238137 kvar=1.023651375705972 Phases=1 yearly=res_kw_512_pu

New Load.load_p1ulv3527_1 conn=wye bus1=p1ulv3527.1 kV=0.12 Vminpu=0.8 Vmaxpu=1.2 model=1 kW=5.947053638705014 kvar=1.2332751328813323 Phases=1 yearly=res_kw_245_pu

New Load.load_p1ulv3527_2 conn=wye bus1=p1ulv3527.2 kV=0.12 Vminpu=0.8 Vmaxpu=1.2 model=1 kW=5.947053638705014 kvar=1.2332751328813323 Phases=1 yearly=res_kw_245_pu

New Load.load_p1ulv3528_1 conn=wye bus1=p1ulv3528.1 kV=0.12 Vminpu=0.8 Vmaxpu=1.2 model=1 kW=5.772584848285176 kvar=1.3225757839012733 Phases=1 yearly=res_kw_599_pu

New Load.load_p1ulv3528_2 conn=wye bus1=p1ulv3528.2 kV=0.12 Vminpu=0.8 Vmaxpu=1.2 model=1 kW=5.772584848285176 kvar=1.3225757839012733 Phases=1 yearly=res_kw_599_pu

New Load.load_p1ulv3529_1 conn=wye bus1=p1ulv3529.1 kV=0.12 Vminpu=0.8 Vmaxpu=1.2 model=1 kW=2.6241521841182514 kvar=0.8429304779950015 Phases=1 yearly=res_kw_33_pu

New Load.load_p1ulv3529_2 conn=wye bus1=p1ulv3529.2 kV=0.12 Vminpu=0.8 Vmaxpu=1.2 model=1 kW=2.6241521841182514 kvar=0.8429304779950015 Phases=1 yearly=res_kw_33_pu

New Load.load_p1ulv3530_1 conn=wye bus1=p1ulv3530.1 kV=0.12 Vminpu=0.8 Vmaxpu=1.2 model=1 kW=6.727252203449795 kvar=1.9067277455995406 Phases=1 yearly=res_kw_822_pu

New Load.load_p1ulv3530_2 conn=wye bus1=p1ulv3530.2 kV=0.12 Vminpu=0.8 Vmaxpu=1.2 model=1 kW=6.727252203449795 kvar=1.9067277455995406 Phases=1 yearly=res_kw_822_pu

New Load.load_p1ulv3578_1 conn=wye bus1=p1ulv3578.1 kV=0.12 Vminpu=0.8 Vmaxpu=1.2 model=1 kW=11.506702661284509 kvar=3.22329926547824 Phases=1 yearly=res_kw_231_pu

New Load.load_p1ulv3578_2 conn=wye bus1=p1ulv3578.2 kV=0.12 Vminpu=0.8 Vmaxpu=1.2 model=1 kW=11.506702661284509 kvar=3.22329926547824 Phases=1 yearly=res_kw_231_pu

New Load.load_p1ulv3579_1 conn=wye bus1=p1ulv3579.1 kV=0.12 Vminpu=0.8 Vmaxpu=1.2 model=1 kW=6.817994061838357 kvar=0.9100697715919355 Phases=1 yearly=res_kw_1099_pu

New Load.load_p1ulv3579_2 conn=wye bus1=p1ulv3579.2 kV=0.12 Vminpu=0.8 Vmaxpu=1.2 model=1 kW=6.817994061838357 kvar=0.9100697715919355 Phases=1 yearly=res_kw_1099_pu

New Load.load_p1ulv3580_1 conn=wye bus1=p1ulv3580.1 kV=0.12 Vminpu=0.8 Vmaxpu=1.2 model=1 kW=3.9060227283575606 kvar=0.8578020352767629 Phases=1 yearly=res_kw_278_pu

New Load.load_p1ulv3580_2 conn=wye bus1=p1ulv3580.2 kV=0.12 Vminpu=0.8 Vmaxpu=1.2 model=1 kW=3.9060227283575606 kvar=0.8578020352767629 Phases=1 yearly=res_kw_278_pu

New Load.load_p1ulv3586_1 conn=wye bus1=p1ulv3586.1 kV=0.12 Vminpu=0.8 Vmaxpu=1.2 model=1 kW=4.666080754031652 kvar=0.9704814918535188 Phases=1 yearly=res_kw_280_pu

New Load.load_p1ulv3586_2 conn=wye bus1=p1ulv3586.2 kV=0.12 Vminpu=0.8 Vmaxpu=1.2 model=1 kW=4.666080754031652 kvar=0.9704814918535188 Phases=1 yearly=res_kw_280_pu

New Load.load_p1ulv3587_1 conn=wye bus1=p1ulv3587.1 kV=0.12 Vminpu=0.8 Vmaxpu=1.2 model=1 kW=5.723135606665604 kvar=1.5038194991101048 Phases=1 yearly=res_kw_1228_pu

New Load.load_p1ulv3587_2 conn=wye bus1=p1ulv3587.2 kV=0.12 Vminpu=0.8 Vmaxpu=1.2 model=1 kW=5.723135606665604 kvar=1.5038194991101048 Phases=1 yearly=res_kw_1228_pu

New Load.load_p1ulv3588_1 conn=wye bus1=p1ulv3588.1 kV=0.12 Vminpu=0.8 Vmaxpu=1.2 model=1 kW=6.897997484512368 kvar=1.5073573946072503 Phases=1 yearly=res_kw_40_pu

New Load.load_p1ulv3588_2 conn=wye bus1=p1ulv3588.2 kV=0.12 Vminpu=0.8 Vmaxpu=1.2 model=1 kW=6.897997484512368 kvar=1.5073573946072503 Phases=1 yearly=res_kw_40_pu

New Load.load_p1ulv3589_1 conn=wye bus1=p1ulv3589.1 kV=0.12 Vminpu=0.8 Vmaxpu=1.2 model=1 kW=2.605021030189827 kvar=1.0007509371876184 Phases=1 yearly=res_kw_24_pu

New Load.load_p1ulv3589_2 conn=wye bus1=p1ulv3589.2 kV=0.12 Vminpu=0.8 Vmaxpu=1.2 model=1 kW=2.605021030189827 kvar=1.0007509371876184 Phases=1 yearly=res_kw_24_pu

New Load.load_p1ulv3590_1 conn=wye bus1=p1ulv3590.1 kV=0.12 Vminpu=0.8 Vmaxpu=1.2 model=1 kW=3.3701610259235064 kvar=1.065454990641787 Phases=1 yearly=res_kw_1037_pu

New Load.load_p1ulv3590_2 conn=wye bus1=p1ulv3590.2 kV=0.12 Vminpu=0.8 Vmaxpu=1.2 model=1 kW=3.3701610259235064 kvar=1.065454990641787 Phases=1 yearly=res_kw_1037_pu

New Load.load_p1ulv3591_1 conn=wye bus1=p1ulv3591.1 kV=0.12 Vminpu=0.8 Vmaxpu=1.2 model=1 kW=5.723135606665604 kvar=1.5038194991101048 Phases=1 yearly=res_kw_1228_pu

New Load.load_p1ulv3591_2 conn=wye bus1=p1ulv3591.2 kV=0.12 Vminpu=0.8 Vmaxpu=1.2 model=1 kW=5.723135606665604 kvar=1.5038194991101048 Phases=1 yearly=res_kw_1228_pu

New Load.load_p1ulv3592_1 conn=wye bus1=p1ulv3592.1 kV=0.12 Vminpu=0.8 Vmaxpu=1.2 model=1 kW=3.7358442183619687 kvar=0.8837352156355889 Phases=1 yearly=res_kw_522_pu

New Load.load_p1ulv3592_2 conn=wye bus1=p1ulv3592.2 kV=0.12 Vminpu=0.8 Vmaxpu=1.2 model=1 kW=3.7358442183619687 kvar=0.8837352156355889 Phases=1 yearly=res_kw_522_pu

New Load.load_p1ulv3593_1 conn=wye bus1=p1ulv3593.1 kV=0.12 Vminpu=0.8 Vmaxpu=1.2 model=1 kW=4.066587428282395 kvar=0.7788614811484863 Phases=1 yearly=res_kw_887_pu

New Load.load_p1ulv3593_2 conn=wye bus1=p1ulv3593.2 kV=0.12 Vminpu=0.8 Vmaxpu=1.2 model=1 kW=4.066587428282395 kvar=0.7788614811484863 Phases=1 yearly=res_kw_887_pu

New Load.load_p1ulv3594 conn=wye bus1=p1ulv3594.1.2.3 kV=0.48 Vminpu=0.8 Vmaxpu=1.2 model=1 kW=37.027150730515146 kvar=8.45406563355403 Phases=3 yearly=res_kw_558_pu

New Load.load_p1ulv4851_1 conn=wye bus1=p1ulv4851.1 kV=0.12 Vminpu=0.8 Vmaxpu=1.2 model=1 kW=11.457721527492426 kvar=1.3801854390555242 Phases=1 yearly=res_kw_861_pu

New Load.load_p1ulv4851_2 conn=wye bus1=p1ulv4851.2 kV=0.12 Vminpu=0.8 Vmaxpu=1.2 model=1 kW=11.457721527492426 kvar=1.3801854390555242 Phases=1 yearly=res_kw_861_pu

New Load.load_p1ulv4852 conn=wye bus1=p1ulv4852.1.2.3 kV=0.48 Vminpu=0.8 Vmaxpu=1.2 model=1 kW=39.386431426010155 kvar=9.002515961767303 Phases=3 yearly=res_kw_617_pu

New Load.load_p1ulv5922_1 conn=wye bus1=p1ulv5922.1 kV=0.12 Vminpu=0.8 Vmaxpu=1.2 model=1 kW=1.5280154200518221 kvar=0.1928528517351529 Phases=1 yearly=res_kw_261_pu

New Load.load_p1ulv5922_2 conn=wye bus1=p1ulv5922.2 kV=0.12 Vminpu=0.8 Vmaxpu=1.2 model=1 kW=1.5280154200518221 kvar=0.1928528517351529 Phases=1 yearly=res_kw_261_pu

New Load.load_p1ulv5924_1 conn=wye bus1=p1ulv5924.1 kV=0.12 Vminpu=0.8 Vmaxpu=1.2 model=1 kW=3.963001053413761 kvar=0.9410786890170905 Phases=1 yearly=res_kw_1256_pu

New Load.load_p1ulv5924_2 conn=wye bus1=p1ulv5924.2 kV=0.12 Vminpu=0.8 Vmaxpu=1.2 model=1 kW=3.963001053413761 kvar=0.9410786890170905 Phases=1 yearly=res_kw_1256_pu

New Load.load_p1ulv5926_1 conn=wye bus1=p1ulv5926.1 kV=0.12 Vminpu=0.8 Vmaxpu=1.2 model=1 kW=2.0903747651596376 kvar=0.7957076388263523 Phases=1 yearly=res_kw_1223_pu

New Load.load_p1ulv5926_2 conn=wye bus1=p1ulv5926.2 kV=0.12 Vminpu=0.8 Vmaxpu=1.2 model=1 kW=2.0903747651596376 kvar=0.7957076388263523 Phases=1 yearly=res_kw_1223_pu

New Load.load_p1ulv5927_1 conn=wye bus1=p1ulv5927.1 kV=0.12 Vminpu=0.8 Vmaxpu=1.2 model=1 kW=9.591249211904968 kvar=2.0347748075499026 Phases=1 yearly=res_kw_319_pu

New Load.load_p1ulv5927_2 conn=wye bus1=p1ulv5927.2 kV=0.12 Vminpu=0.8 Vmaxpu=1.2 model=1 kW=9.591249211904968 kvar=2.0347748075499026 Phases=1 yearly=res_kw_319_pu

New Load.load_p1ulv5928_1 conn=wye bus1=p1ulv5928.1 kV=0.12 Vminpu=0.8 Vmaxpu=1.2 model=1 kW=3.629714039262861 kvar=1.2034402112399032 Phases=1 yearly=res_kw_203_pu

New Load.load_p1ulv5928_2 conn=wye bus1=p1ulv5928.2 kV=0.12 Vminpu=0.8 Vmaxpu=1.2 model=1 kW=3.629714039262861 kvar=1.2034402112399032 Phases=1 yearly=res_kw_203_pu

New Load.load_p1ulv5930_1 conn=wye bus1=p1ulv5930.1 kV=0.12 Vminpu=0.8 Vmaxpu=1.2 model=1 kW=3.4468581914223817 kvar=1.1411197390818253 Phases=1 yearly=res_kw_250_pu

New Load.load_p1ulv5930_2 conn=wye bus1=p1ulv5930.2 kV=0.12 Vminpu=0.8 Vmaxpu=1.2 model=1 kW=3.4468581914223817 kvar=1.1411197390818253 Phases=1 yearly=res_kw_250_pu

New Load.load_p1ulv5931_1 conn=wye bus1=p1ulv5931.1 kV=0.12 Vminpu=0.8 Vmaxpu=1.2 model=1 kW=2.6241521841182514 kvar=0.8429304779950015 Phases=1 yearly=res_kw_33_pu

New Load.load_p1ulv5931_2 conn=wye bus1=p1ulv5931.2 kV=0.12 Vminpu=0.8 Vmaxpu=1.2 model=1 kW=2.6241521841182514 kvar=0.8429304779950015 Phases=1 yearly=res_kw_33_pu

New Load.load_p1ulv5932_1 conn=wye bus1=p1ulv5932.1 kV=0.12 Vminpu=0.8 Vmaxpu=1.2 model=1 kW=3.3641909207712115 kvar=0.9284266244461494 Phases=1 yearly=res_kw_523_pu

New Load.load_p1ulv5932_2 conn=wye bus1=p1ulv5932.2 kV=0.12 Vminpu=0.8 Vmaxpu=1.2 model=1 kW=3.3641909207712115 kvar=0.9284266244461494 Phases=1 yearly=res_kw_523_pu

New Load.load_p1ulv5933_1 conn=wye bus1=p1ulv5933.1 kV=0.12 Vminpu=0.8 Vmaxpu=1.2 model=1 kW=2.6241521841182514 kvar=0.8429304779950015 Phases=1 yearly=res_kw_33_pu

New Load.load_p1ulv5933_2 conn=wye bus1=p1ulv5933.2 kV=0.12 Vminpu=0.8 Vmaxpu=1.2 model=1 kW=2.6241521841182514 kvar=0.8429304779950015 Phases=1 yearly=res_kw_33_pu

New Load.load_p1ulv5934_1 conn=wye bus1=p1ulv5934.1 kV=0.12 Vminpu=0.8 Vmaxpu=1.2 model=1 kW=3.3641909207712115 kvar=0.9284266244461494 Phases=1 yearly=res_kw_523_pu

New Load.load_p1ulv5934_2 conn=wye bus1=p1ulv5934.2 kV=0.12 Vminpu=0.8 Vmaxpu=1.2 model=1 kW=3.3641909207712115 kvar=0.9284266244461494 Phases=1 yearly=res_kw_523_pu

New Load.load_p1ulv5935_1 conn=wye bus1=p1ulv5935.1 kV=0.12 Vminpu=0.8 Vmaxpu=1.2 model=1 kW=3.3641909207712115 kvar=0.9284266244461494 Phases=1 yearly=res_kw_523_pu

New Load.load_p1ulv5935_2 conn=wye bus1=p1ulv5935.2 kV=0.12 Vminpu=0.8 Vmaxpu=1.2 model=1 kW=3.3641909207712115 kvar=0.9284266244461494 Phases=1 yearly=res_kw_523_pu

New Load.load_p1ulv5936_1 conn=wye bus1=p1ulv5936.1 kV=0.12 Vminpu=0.8 Vmaxpu=1.2 model=1 kW=3.963001053413761 kvar=0.9410786890170905 Phases=1 yearly=res_kw_1256_pu

New Load.load_p1ulv5936_2 conn=wye bus1=p1ulv5936.2 kV=0.12 Vminpu=0.8 Vmaxpu=1.2 model=1 kW=3.963001053413761 kvar=0.9410786890170905 Phases=1 yearly=res_kw_1256_pu

New Load.load_p1ulv5937_1 conn=wye bus1=p1ulv5937.1 kV=0.12 Vminpu=0.8 Vmaxpu=1.2 model=1 kW=6.002007594404856 kvar=1.373736088576884 Phases=1 yearly=res_kw_823_pu

New Load.load_p1ulv5937_2 conn=wye bus1=p1ulv5937.2 kV=0.12 Vminpu=0.8 Vmaxpu=1.2 model=1 kW=6.002007594404856 kvar=1.373736088576884 Phases=1 yearly=res_kw_823_pu

New Load.load_p1ulv5940_1 conn=wye bus1=p1ulv5940.1 kV=0.12 Vminpu=0.8 Vmaxpu=1.2 model=1 kW=3.3701610259235064 kvar=1.065454990641787 Phases=1 yearly=res_kw_1037_pu

New Load.load_p1ulv5940_2 conn=wye bus1=p1ulv5940.2 kV=0.12 Vminpu=0.8 Vmaxpu=1.2 model=1 kW=3.3701610259235064 kvar=1.065454990641787 Phases=1 yearly=res_kw_1037_pu

New Load.load_p1ulv5941_1 conn=wye bus1=p1ulv5941.1 kV=0.12 Vminpu=0.8 Vmaxpu=1.2 model=1 kW=5.574466357705123 kvar=1.0791692562247137 Phases=1 yearly=res_kw_1083_pu

New Load.load_p1ulv5941_2 conn=wye bus1=p1ulv5941.2 kV=0.12 Vminpu=0.8 Vmaxpu=1.2 model=1 kW=5.574466357705123 kvar=1.0791692562247137 Phases=1 yearly=res_kw_1083_pu

New Load.load_p1ulv5942_1 conn=wye bus1=p1ulv5942.1 kV=0.12 Vminpu=0.8 Vmaxpu=1.2 model=1 kW=2.0903747651596376 kvar=0.7957076388263523 Phases=1 yearly=res_kw_1223_pu

New Load.load_p1ulv5942_2 conn=wye bus1=p1ulv5942.2 kV=0.12 Vminpu=0.8 Vmaxpu=1.2 model=1 kW=2.0903747651596376 kvar=0.7957076388263523 Phases=1 yearly=res_kw_1223_pu

New Load.load_p1ulv5943_1 conn=wye bus1=p1ulv5943.1 kV=0.12 Vminpu=0.8 Vmaxpu=1.2 model=1 kW=6.509851554537701 kvar=1.8030128852474767 Phases=1 yearly=res_kw_959_pu

New Load.load_p1ulv5943_2 conn=wye bus1=p1ulv5943.2 kV=0.12 Vminpu=0.8 Vmaxpu=1.2 model=1 kW=6.509851554537701 kvar=1.8030128852474767 Phases=1 yearly=res_kw_959_pu

New Load.load_p1ulv5944_1 conn=wye bus1=p1ulv5944.1 kV=0.12 Vminpu=0.8 Vmaxpu=1.2 model=1 kW=5.772584848285176 kvar=1.3225757839012733 Phases=1 yearly=res_kw_599_pu

New Load.load_p1ulv5944_2 conn=wye bus1=p1ulv5944.2 kV=0.12 Vminpu=0.8 Vmaxpu=1.2 model=1 kW=5.772584848285176 kvar=1.3225757839012733 Phases=1 yearly=res_kw_599_pu

New Load.load_p1ulv5945_1 conn=wye bus1=p1ulv5945.1 kV=0.12 Vminpu=0.8 Vmaxpu=1.2 model=1 kW=2.456740089175818 kvar=0.4991709793701422 Phases=1 yearly=res_kw_331_pu

New Load.load_p1ulv5945_2 conn=wye bus1=p1ulv5945.2 kV=0.12 Vminpu=0.8 Vmaxpu=1.2 model=1 kW=2.456740089175818 kvar=0.4991709793701422 Phases=1 yearly=res_kw_331_pu

New Load.load_p1ulv5946_1 conn=wye bus1=p1ulv5946.1 kV=0.12 Vminpu=0.8 Vmaxpu=1.2 model=1 kW=5.574466357705123 kvar=1.0791692562247137 Phases=1 yearly=res_kw_1083_pu

New Load.load_p1ulv5946_2 conn=wye bus1=p1ulv5946.2 kV=0.12 Vminpu=0.8 Vmaxpu=1.2 model=1 kW=5.574466357705123 kvar=1.0791692562247137 Phases=1 yearly=res_kw_1083_pu

New Load.load_p1ulv5947_1 conn=wye bus1=p1ulv5947.1 kV=0.12 Vminpu=0.8 Vmaxpu=1.2 model=1 kW=7.151603169892386 kvar=1.493762478537685 Phases=1 yearly=res_kw_30_pu

New Load.load_p1ulv5947_2 conn=wye bus1=p1ulv5947.2 kV=0.12 Vminpu=0.8 Vmaxpu=1.2 model=1 kW=7.151603169892386 kvar=1.493762478537685 Phases=1 yearly=res_kw_30_pu

New Load.load_p1ulv5948_1 conn=wye bus1=p1ulv5948.1 kV=0.12 Vminpu=0.8 Vmaxpu=1.2 model=1 kW=2.623267981089487 kvar=1.212519304398851 Phases=1 yearly=res_kw_452_pu

New Load.load_p1ulv5948_2 conn=wye bus1=p1ulv5948.2 kV=0.12 Vminpu=0.8 Vmaxpu=1.2 model=1 kW=2.623267981089487 kvar=1.212519304398851 Phases=1 yearly=res_kw_452_pu

New Load.load_p1ulv5949_1 conn=wye bus1=p1ulv5949.1 kV=0.12 Vminpu=0.8 Vmaxpu=1.2 model=1 kW=6.495867403886884 kvar=1.0074089308244782 Phases=1 yearly=res_kw_597_pu

New Load.load_p1ulv5949_2 conn=wye bus1=p1ulv5949.2 kV=0.12 Vminpu=0.8 Vmaxpu=1.2 model=1 kW=6.495867403886884 kvar=1.0074089308244782 Phases=1 yearly=res_kw_597_pu

New Load.load_p1ulv5950_1 conn=wye bus1=p1ulv5950.1 kV=0.12 Vminpu=0.8 Vmaxpu=1.2 model=1 kW=4.056693082446679 kvar=1.1220868653328775 Phases=1 yearly=res_kw_963_pu

New Load.load_p1ulv5950_2 conn=wye bus1=p1ulv5950.2 kV=0.12 Vminpu=0.8 Vmaxpu=1.2 model=1 kW=4.056693082446679 kvar=1.1220868653328775 Phases=1 yearly=res_kw_963_pu

New Load.load_p1ulv5951_1 conn=wye bus1=p1ulv5951.1 kV=0.12 Vminpu=0.8 Vmaxpu=1.2 model=1 kW=5.1496269559453545 kvar=1.5323145223091108 Phases=1 yearly=com_kw_14231_pu

New Load.load_p1ulv5951_2 conn=wye bus1=p1ulv5951.2 kV=0.12 Vminpu=0.8 Vmaxpu=1.2 model=1 kW=5.1496269559453545 kvar=1.5323145223091108 Phases=1 yearly=com_kw_14231_pu

New Load.load_p1ulv5952_1 conn=wye bus1=p1ulv5952.1 kV=0.12 Vminpu=0.8 Vmaxpu=1.2 model=1 kW=5.073052946727468 kvar=0.334720435390571 Phases=1 yearly=com_kw_14872_pu

New Load.load_p1ulv5952_2 conn=wye bus1=p1ulv5952.2 kV=0.12 Vminpu=0.8 Vmaxpu=1.2 model=1 kW=5.073052946727468 kvar=0.334720435390571 Phases=1 yearly=com_kw_14872_pu

New Load.load_p1ulv5953_1 conn=wye bus1=p1ulv5953.1 kV=0.12 Vminpu=0.8 Vmaxpu=1.2 model=1 kW=3.6844020253442458 kvar=1.4451491397155931 Phases=1 yearly=res_kw_1258_pu

New Load.load_p1ulv5953_2 conn=wye bus1=p1ulv5953.2 kV=0.12 Vminpu=0.8 Vmaxpu=1.2 model=1 kW=3.6844020253442458 kvar=1.4451491397155931 Phases=1 yearly=res_kw_1258_pu

New Load.load_p1ulv5954_1 conn=wye bus1=p1ulv5954.1 kV=0.12 Vminpu=0.8 Vmaxpu=1.2 model=1 kW=4.788649591238137 kvar=1.023651375705972 Phases=1 yearly=res_kw_512_pu

New Load.load_p1ulv5954_2 conn=wye bus1=p1ulv5954.2 kV=0.12 Vminpu=0.8 Vmaxpu=1.2 model=1 kW=4.788649591238137 kvar=1.023651375705972 Phases=1 yearly=res_kw_512_pu

New Load.load_p1ulv5955_1 conn=wye bus1=p1ulv5955.1 kV=0.12 Vminpu=0.8 Vmaxpu=1.2 model=1 kW=3.3641909207712115 kvar=0.9284266244461494 Phases=1 yearly=res_kw_523_pu

New Load.load_p1ulv5955_2 conn=wye bus1=p1ulv5955.2 kV=0.12 Vminpu=0.8 Vmaxpu=1.2 model=1 kW=3.3641909207712115 kvar=0.9284266244461494 Phases=1 yearly=res_kw_523_pu

New Load.load_p1ulv5956_1 conn=wye bus1=p1ulv5956.1 kV=0.12 Vminpu=0.8 Vmaxpu=1.2 model=1 kW=2.1376631749204993 kvar=0.6218033466021168 Phases=1 yearly=res_kw_93_pu

New Load.load_p1ulv5956_2 conn=wye bus1=p1ulv5956.2 kV=0.12 Vminpu=0.8 Vmaxpu=1.2 model=1 kW=2.1376631749204993 kvar=0.6218033466021168 Phases=1 yearly=res_kw_93_pu

New Load.load_p1ulv5957_1 conn=wye bus1=p1ulv5957.1 kV=0.12 Vminpu=0.8 Vmaxpu=1.2 model=1 kW=11.457721527492426 kvar=1.3801854390555242 Phases=1 yearly=res_kw_861_pu

New Load.load_p1ulv5957_2 conn=wye bus1=p1ulv5957.2 kV=0.12 Vminpu=0.8 Vmaxpu=1.2 model=1 kW=11.457721527492426 kvar=1.3801854390555242 Phases=1 yearly=res_kw_861_pu

New Load.load_p1ulv5959_1 conn=wye bus1=p1ulv5959.1 kV=0.12 Vminpu=0.8 Vmaxpu=1.2 model=1 kW=4.1803833863336415 kvar=0.8306701067268231 Phases=1 yearly=res_kw_540_pu

New Load.load_p1ulv5959_2 conn=wye bus1=p1ulv5959.2 kV=0.12 Vminpu=0.8 Vmaxpu=1.2 model=1 kW=4.1803833863336415 kvar=0.8306701067268231 Phases=1 yearly=res_kw_540_pu

New Load.load_p1ulv5960_1 conn=wye bus1=p1ulv5960.1 kV=0.12 Vminpu=0.8 Vmaxpu=1.2 model=1 kW=5.5396149838334106 kvar=1.3495096504699533 Phases=1 yearly=res_kw_1273_pu

New Load.load_p1ulv5960_2 conn=wye bus1=p1ulv5960.2 kV=0.12 Vminpu=0.8 Vmaxpu=1.2 model=1 kW=5.5396149838334106 kvar=1.3495096504699533 Phases=1 yearly=res_kw_1273_pu

New Load.load_p1ulv5961_1 conn=wye bus1=p1ulv5961.1 kV=0.12 Vminpu=0.8 Vmaxpu=1.2 model=1 kW=2.605021030189827 kvar=1.0007509371876184 Phases=1 yearly=res_kw_24_pu

New Load.load_p1ulv5961_2 conn=wye bus1=p1ulv5961.2 kV=0.12 Vminpu=0.8 Vmaxpu=1.2 model=1 kW=2.605021030189827 kvar=1.0007509371876184 Phases=1 yearly=res_kw_24_pu

New Load.load_p1ulv5962_1 conn=wye bus1=p1ulv5962.1 kV=0.12 Vminpu=0.8 Vmaxpu=1.2 model=1 kW=7.820072877358693 kvar=1.759853089528969 Phases=1 yearly=res_kw_97_pu

New Load.load_p1ulv5962_2 conn=wye bus1=p1ulv5962.2 kV=0.12 Vminpu=0.8 Vmaxpu=1.2 model=1 kW=7.820072877358693 kvar=1.759853089528969 Phases=1 yearly=res_kw_97_pu

New Load.load_p1ulv5963_1 conn=wye bus1=p1ulv5963.1 kV=0.12 Vminpu=0.8 Vmaxpu=1.2 model=1 kW=4.78815623948431 kvar=1.2110296754961107 Phases=1 yearly=res_kw_842_pu

New Load.load_p1ulv5963_2 conn=wye bus1=p1ulv5963.2 kV=0.12 Vminpu=0.8 Vmaxpu=1.2 model=1 kW=4.78815623948431 kvar=1.2110296754961107 Phases=1 yearly=res_kw_842_pu

New Load.load_p1ulv5964_1 conn=wye bus1=p1ulv5964.1 kV=0.12 Vminpu=0.8 Vmaxpu=1.2 model=1 kW=4.897278139879629 kvar=1.0793580648076895 Phases=1 yearly=res_kw_645_pu

New Load.load_p1ulv5964_2 conn=wye bus1=p1ulv5964.2 kV=0.12 Vminpu=0.8 Vmaxpu=1.2 model=1 kW=4.897278139879629 kvar=1.0793580648076895 Phases=1 yearly=res_kw_645_pu

New Load.load_p1ulv5965_1 conn=wye bus1=p1ulv5965.1 kV=0.12 Vminpu=0.8 Vmaxpu=1.2 model=1 kW=2.1376631749204993 kvar=0.6218033466021168 Phases=1 yearly=res_kw_93_pu

New Load.load_p1ulv5965_2 conn=wye bus1=p1ulv5965.2 kV=0.12 Vminpu=0.8 Vmaxpu=1.2 model=1 kW=2.1376631749204993 kvar=0.6218033466021168 Phases=1 yearly=res_kw_93_pu

New Load.load_p1ulv5966_1 conn=wye bus1=p1ulv5966.1 kV=0.12 Vminpu=0.8 Vmaxpu=1.2 model=1 kW=4.273181988238683 kvar=1.110614151275591 Phases=1 yearly=res_kw_1113_pu

New Load.load_p1ulv5966_2 conn=wye bus1=p1ulv5966.2 kV=0.12 Vminpu=0.8 Vmaxpu=1.2 model=1 kW=4.273181988238683 kvar=1.110614151275591 Phases=1 yearly=res_kw_1113_pu

New Load.load_p1ulv5968_1 conn=wye bus1=p1ulv5968.1 kV=0.12 Vminpu=0.8 Vmaxpu=1.2 model=1 kW=4.788649591238137 kvar=1.023651375705972 Phases=1 yearly=res_kw_512_pu

New Load.load_p1ulv5968_2 conn=wye bus1=p1ulv5968.2 kV=0.12 Vminpu=0.8 Vmaxpu=1.2 model=1 kW=4.788649591238137 kvar=1.023651375705972 Phases=1 yearly=res_kw_512_pu

New Load.load_p1ulv5969_1 conn=wye bus1=p1ulv5969.1 kV=0.12 Vminpu=0.8 Vmaxpu=1.2 model=1 kW=5.2017816712134515 kvar=0.6724962022357446 Phases=1 yearly=res_kw_469_pu

New Load.load_p1ulv5969_2 conn=wye bus1=p1ulv5969.2 kV=0.12 Vminpu=0.8 Vmaxpu=1.2 model=1 kW=5.2017816712134515 kvar=0.6724962022357446 Phases=1 yearly=res_kw_469_pu

New Load.load_p1ulv5970_1 conn=wye bus1=p1ulv5970.1 kV=0.12 Vminpu=0.8 Vmaxpu=1.2 model=1 kW=2.6241521841182514 kvar=0.8429304779950015 Phases=1 yearly=res_kw_33_pu

New Load.load_p1ulv5970_2 conn=wye bus1=p1ulv5970.2 kV=0.12 Vminpu=0.8 Vmaxpu=1.2 model=1 kW=2.6241521841182514 kvar=0.8429304779950015 Phases=1 yearly=res_kw_33_pu

New Load.load_p1ulv5971_1 conn=wye bus1=p1ulv5971.1 kV=0.12 Vminpu=0.8 Vmaxpu=1.2 model=1 kW=3.8748715750127736 kvar=1.5614372175332516 Phases=1 yearly=res_kw_517_pu

New Load.load_p1ulv5971_2 conn=wye bus1=p1ulv5971.2 kV=0.12 Vminpu=0.8 Vmaxpu=1.2 model=1 kW=3.8748715750127736 kvar=1.5614372175332516 Phases=1 yearly=res_kw_517_pu

New Load.load_p1ulv5972_1 conn=wye bus1=p1ulv5972.1 kV=0.12 Vminpu=0.8 Vmaxpu=1.2 model=1 kW=2.40000228705824 kvar=1.0173787262529668 Phases=1 yearly=res_kw_1205_pu

New Load.load_p1ulv5972_2 conn=wye bus1=p1ulv5972.2 kV=0.12 Vminpu=0.8 Vmaxpu=1.2 model=1 kW=2.40000228705824 kvar=1.0173787262529668 Phases=1 yearly=res_kw_1205_pu

New Load.load_p1ulv5973_1 conn=wye bus1=p1ulv5973.1 kV=0.12 Vminpu=0.8 Vmaxpu=1.2 model=1 kW=5.942686091683347 kvar=1.452957393533487 Phases=1 yearly=res_kw_772_pu

New Load.load_p1ulv5973_2 conn=wye bus1=p1ulv5973.2 kV=0.12 Vminpu=0.8 Vmaxpu=1.2 model=1 kW=5.942686091683347 kvar=1.452957393533487 Phases=1 yearly=res_kw_772_pu

New Load.load_p1ulv5974_1 conn=wye bus1=p1ulv5974.1 kV=0.12 Vminpu=0.8 Vmaxpu=1.2 model=1 kW=2.6241521841182514 kvar=0.8429304779950015 Phases=1 yearly=res_kw_33_pu

New Load.load_p1ulv5974_2 conn=wye bus1=p1ulv5974.2 kV=0.12 Vminpu=0.8 Vmaxpu=1.2 model=1 kW=2.6241521841182514 kvar=0.8429304779950015 Phases=1 yearly=res_kw_33_pu

New Load.load_p1ulv5975_1 conn=wye bus1=p1ulv5975.1 kV=0.12 Vminpu=0.8 Vmaxpu=1.2 model=1 kW=7.4020629075860835 kvar=1.2426095215696782 Phases=1 yearly=res_kw_938_pu

New Load.load_p1ulv5975_2 conn=wye bus1=p1ulv5975.2 kV=0.12 Vminpu=0.8 Vmaxpu=1.2 model=1 kW=7.4020629075860835 kvar=1.2426095215696782 Phases=1 yearly=res_kw_938_pu

New Load.load_p1ulv5976_1 conn=wye bus1=p1ulv5976.1 kV=0.12 Vminpu=0.8 Vmaxpu=1.2 model=1 kW=2.6241521841182514 kvar=0.8429304779950015 Phases=1 yearly=res_kw_33_pu

New Load.load_p1ulv5976_2 conn=wye bus1=p1ulv5976.2 kV=0.12 Vminpu=0.8 Vmaxpu=1.2 model=1 kW=2.6241521841182514 kvar=0.8429304779950015 Phases=1 yearly=res_kw_33_pu

New Load.load_p1ulv5978_1 conn=wye bus1=p1ulv5978.1 kV=0.12 Vminpu=0.8 Vmaxpu=1.2 model=1 kW=9.341738473663403 kvar=2.018548151169967 Phases=1 yearly=res_kw_504_pu

New Load.load_p1ulv5978_2 conn=wye bus1=p1ulv5978.2 kV=0.12 Vminpu=0.8 Vmaxpu=1.2 model=1 kW=9.341738473663403 kvar=2.018548151169967 Phases=1 yearly=res_kw_504_pu

New Load.load_p1ulv5979_1 conn=wye bus1=p1ulv5979.1 kV=0.12 Vminpu=0.8 Vmaxpu=1.2 model=1 kW=1.8618983584330409 kvar=0.7337589993741062 Phases=1 yearly=res_kw_141_pu

New Load.load_p1ulv5979_2 conn=wye bus1=p1ulv5979.2 kV=0.12 Vminpu=0.8 Vmaxpu=1.2 model=1 kW=1.8618983584330409 kvar=0.7337589993741062 Phases=1 yearly=res_kw_141_pu

New Load.load_p1ulv5980_1 conn=wye bus1=p1ulv5980.1 kV=0.12 Vminpu=0.8 Vmaxpu=1.2 model=1 kW=2.9178485115923896 kvar=1.0715119122844614 Phases=1 yearly=res_kw_1149_pu

New Load.load_p1ulv5980_2 conn=wye bus1=p1ulv5980.2 kV=0.12 Vminpu=0.8 Vmaxpu=1.2 model=1 kW=2.9178485115923896 kvar=1.0715119122844614 Phases=1 yearly=res_kw_1149_pu

New Load.load_p1ulv5981_1 conn=wye bus1=p1ulv5981.1 kV=0.12 Vminpu=0.8 Vmaxpu=1.2 model=1 kW=2.605021030189827 kvar=1.0007509371876184 Phases=1 yearly=res_kw_24_pu

New Load.load_p1ulv5981_2 conn=wye bus1=p1ulv5981.2 kV=0.12 Vminpu=0.8 Vmaxpu=1.2 model=1 kW=2.605021030189827 kvar=1.0007509371876184 Phases=1 yearly=res_kw_24_pu

New Load.load_p1ulv5982_1 conn=wye bus1=p1ulv5982.1 kV=0.12 Vminpu=0.8 Vmaxpu=1.2 model=1 kW=9.591249211904968 kvar=2.0347748075499026 Phases=1 yearly=res_kw_319_pu

New Load.load_p1ulv5982_2 conn=wye bus1=p1ulv5982.2 kV=0.12 Vminpu=0.8 Vmaxpu=1.2 model=1 kW=9.591249211904968 kvar=2.0347748075499026 Phases=1 yearly=res_kw_319_pu

New Load.load_p1ulv9202_1 conn=wye bus1=p1ulv9202.1 kV=0.12 Vminpu=0.8 Vmaxpu=1.2 model=1 kW=5.574466357705123 kvar=1.0791692562247137 Phases=1 yearly=res_kw_1083_pu

New Load.load_p1ulv9202_2 conn=wye bus1=p1ulv9202.2 kV=0.12 Vminpu=0.8 Vmaxpu=1.2 model=1 kW=5.574466357705123 kvar=1.0791692562247137 Phases=1 yearly=res_kw_1083_pu

New Load.load_p1ulv9377 conn=wye bus1=p1ulv9377.1.2.3 kV=0.48 Vminpu=0.8 Vmaxpu=1.2 model=1 kW=22.152047737869896 kvar=6.510834234174965 Phases=3 yearly=com_kw_14325_pu

New Load.load_p1ulv9394_1 conn=wye bus1=p1ulv9394.1 kV=0.12 Vminpu=0.8 Vmaxpu=1.2 model=1 kW=5.947053638705014 kvar=1.2332751328813323 Phases=1 yearly=res_kw_245_pu

New Load.load_p1ulv9394_2 conn=wye bus1=p1ulv9394.2 kV=0.12 Vminpu=0.8 Vmaxpu=1.2 model=1 kW=5.947053638705014 kvar=1.2332751328813323 Phases=1 yearly=res_kw_245_pu

New Load.load_p1ulv9395_1 conn=wye bus1=p1ulv9395.1 kV=0.12 Vminpu=0.8 Vmaxpu=1.2 model=1 kW=3.8748715750127736 kvar=1.5614372175332516 Phases=1 yearly=res_kw_517_pu

New Load.load_p1ulv9395_2 conn=wye bus1=p1ulv9395.2 kV=0.12 Vminpu=0.8 Vmaxpu=1.2 model=1 kW=3.8748715750127736 kvar=1.5614372175332516 Phases=1 yearly=res_kw_517_pu

New Load.load_p1ulv9397_1 conn=wye bus1=p1ulv9397.1 kV=0.12 Vminpu=0.8 Vmaxpu=1.2 model=1 kW=5.5396149838334106 kvar=1.3495096504699533 Phases=1 yearly=res_kw_1273_pu

New Load.load_p1ulv9397_2 conn=wye bus1=p1ulv9397.2 kV=0.12 Vminpu=0.8 Vmaxpu=1.2 model=1 kW=5.5396149838334106 kvar=1.3495096504699533 Phases=1 yearly=res_kw_1273_pu

New Load.load_p1ulv9399_1 conn=wye bus1=p1ulv9399.1 kV=0.12 Vminpu=0.8 Vmaxpu=1.2 model=1 kW=7.820072877358693 kvar=1.759853089528969 Phases=1 yearly=res_kw_97_pu

New Load.load_p1ulv9399_2 conn=wye bus1=p1ulv9399.2 kV=0.12 Vminpu=0.8 Vmaxpu=1.2 model=1 kW=7.820072877358693 kvar=1.759853089528969 Phases=1 yearly=res_kw_97_pu

New Load.load_p1ulv9401_1 conn=wye bus1=p1ulv9401.1 kV=0.12 Vminpu=0.8 Vmaxpu=1.2 model=1 kW=3.4468581914223817 kvar=1.1411197390818253 Phases=1 yearly=res_kw_250_pu

New Load.load_p1ulv9401_2 conn=wye bus1=p1ulv9401.2 kV=0.12 Vminpu=0.8 Vmaxpu=1.2 model=1 kW=3.4468581914223817 kvar=1.1411197390818253 Phases=1 yearly=res_kw_250_pu

New Load.load_p1ulv9402_1 conn=wye bus1=p1ulv9402.1 kV=0.12 Vminpu=0.8 Vmaxpu=1.2 model=1 kW=4.78815623948431 kvar=1.2110296754961107 Phases=1 yearly=res_kw_842_pu

New Load.load_p1ulv9402_2 conn=wye bus1=p1ulv9402.2 kV=0.12 Vminpu=0.8 Vmaxpu=1.2 model=1 kW=4.78815623948431 kvar=1.2110296754961107 Phases=1 yearly=res_kw_842_pu

New Load.load_p1ulv9403_1 conn=wye bus1=p1ulv9403.1 kV=0.12 Vminpu=0.8 Vmaxpu=1.2 model=1 kW=5.991917116566147 kvar=1.6692124001399427 Phases=1 yearly=res_kw_314_pu

New Load.load_p1ulv9403_2 conn=wye bus1=p1ulv9403.2 kV=0.12 Vminpu=0.8 Vmaxpu=1.2 model=1 kW=5.991917116566147 kvar=1.6692124001399427 Phases=1 yearly=res_kw_314_pu

New Load.load_p1ulv9404_1 conn=wye bus1=p1ulv9404.1 kV=0.12 Vminpu=0.8 Vmaxpu=1.2 model=1 kW=4.359410160991208 kvar=0.7703346328307125 Phases=1 yearly=res_kw_470_pu

New Load.load_p1ulv9404_2 conn=wye bus1=p1ulv9404.2 kV=0.12 Vminpu=0.8 Vmaxpu=1.2 model=1 kW=4.359410160991208 kvar=0.7703346328307125 Phases=1 yearly=res_kw_470_pu

New Load.load_p1ulv9405_1 conn=wye bus1=p1ulv9405.1 kV=0.12 Vminpu=0.8 Vmaxpu=1.2 model=1 kW=4.946229697016326 kvar=1.076472794027553 Phases=1 yearly=res_kw_1166_pu

New Load.load_p1ulv9405_2 conn=wye bus1=p1ulv9405.2 kV=0.12 Vminpu=0.8 Vmaxpu=1.2 model=1 kW=4.946229697016326 kvar=1.076472794027553 Phases=1 yearly=res_kw_1166_pu

New Load.load_p1ulv9406_1 conn=wye bus1=p1ulv9406.1 kV=0.12 Vminpu=0.8 Vmaxpu=1.2 model=1 kW=5.927737313300522 kvar=2.018482424064332 Phases=1 yearly=res_kw_38_pu

New Load.load_p1ulv9406_2 conn=wye bus1=p1ulv9406.2 kV=0.12 Vminpu=0.8 Vmaxpu=1.2 model=1 kW=5.927737313300522 kvar=2.018482424064332 Phases=1 yearly=res_kw_38_pu

New Load.load_p1ulv9407_1 conn=wye bus1=p1ulv9407.1 kV=0.12 Vminpu=0.8 Vmaxpu=1.2 model=1 kW=2.1376631749204993 kvar=0.6218033466021168 Phases=1 yearly=res_kw_93_pu

New Load.load_p1ulv9407_2 conn=wye bus1=p1ulv9407.2 kV=0.12 Vminpu=0.8 Vmaxpu=1.2 model=1 kW=2.1376631749204993 kvar=0.6218033466021168 Phases=1 yearly=res_kw_93_pu

New Load.load_p1ulv9408 conn=wye bus1=p1ulv9408.1.2.3 kV=0.48 Vminpu=0.8 Vmaxpu=1.2 model=1 kW=84.22153423334946 kvar=7.833167664266239 Phases=3 yearly=com_kw_14125_pu

New Load.load_p1ulv9409_1 conn=wye bus1=p1ulv9409.1 kV=0.12 Vminpu=0.8 Vmaxpu=1.2 model=1 kW=6.782523491229934 kvar=1.0594739670560112 Phases=1 yearly=res_kw_564_pu

New Load.load_p1ulv9409_2 conn=wye bus1=p1ulv9409.2 kV=0.12 Vminpu=0.8 Vmaxpu=1.2 model=1 kW=6.782523491229934 kvar=1.0594739670560112 Phases=1 yearly=res_kw_564_pu
