New Loadshape.GSO_36.1090_-79.9153_55_225 npts= 35040 interval=0.25 mult = (file=../../../../profiles/GSO_36.1090_-79.9153_55_225.csv)

New Loadshape.GSO_36.1090_-79.9153_15_90 npts= 35040 interval=0.25 mult = (file=../../../../profiles/GSO_36.1090_-79.9153_15_90.csv)

New Loadshape.GSO_36.1090_-79.9153_15_270 npts= 35040 interval=0.25 mult = (file=../../../../profiles/GSO_36.1090_-79.9153_15_270.csv)

New Loadshape.GSO_36.1090_-79.9153_15_180 npts= 35040 interval=0.25 mult = (file=../../../../profiles/GSO_36.1090_-79.9153_15_180.csv)

New Loadshape.GSO_36.1090_-79.9153_35_135 npts= 35040 interval=0.25 mult = (file=../../../../profiles/GSO_36.1090_-79.9153_35_135.csv)

New Loadshape.GSO_36.1090_-79.9153_15_135 npts= 35040 interval=0.25 mult = (file=../../../../profiles/GSO_36.1090_-79.9153_15_135.csv)

New Loadshape.GSO_36.1090_-79.9153_45_180 npts= 35040 interval=0.25 mult = (file=../../../../profiles/GSO_36.1090_-79.9153_45_180.csv)

New Loadshape.GSO_36.1090_-79.9153_35_225 npts= 35040 interval=0.25 mult = (file=../../../../profiles/GSO_36.1090_-79.9153_35_225.csv)

New Loadshape.GSO_36.1090_-79.9153_35_270 npts= 35040 interval=0.25 mult = (file=../../../../profiles/GSO_36.1090_-79.9153_35_270.csv)

New Loadshape.GSO_36.1090_-79.9153_35_180 npts= 35040 interval=0.25 mult = (file=../../../../profiles/GSO_36.1090_-79.9153_35_180.csv)

New Loadshape.GSO_36.1090_-79.9153_15_225 npts= 35040 interval=0.25 mult = (file=../../../../profiles/GSO_36.1090_-79.9153_15_225.csv)

New Loadshape.GSO_36.1090_-79.9153_25_90 npts= 35040 interval=0.25 mult = (file=../../../../profiles/GSO_36.1090_-79.9153_25_90.csv)

New Loadshape.GSO_36.1090_-79.9153_45_135 npts= 35040 interval=0.25 mult = (file=../../../../profiles/GSO_36.1090_-79.9153_45_135.csv)

New Loadshape.GSO_36.1090_-79.9153_25_135 npts= 35040 interval=0.25 mult = (file=../../../../profiles/GSO_36.1090_-79.9153_25_135.csv)

New Loadshape.GSO_36.1090_-79.9153_25_270 npts= 35040 interval=0.25 mult = (file=../../../../profiles/GSO_36.1090_-79.9153_25_270.csv)

New Loadshape.GSO_36.1090_-79.9153_45_225 npts= 35040 interval=0.25 mult = (file=../../../../profiles/GSO_36.1090_-79.9153_45_225.csv)

New Loadshape.GSO_36.1090_-79.9153_25_180 npts= 35040 interval=0.25 mult = (file=../../../../profiles/GSO_36.1090_-79.9153_25_180.csv)

New Loadshape.GSO_36.1090_-79.9153_35_90 npts= 35040 interval=0.25 mult = (file=../../../../profiles/GSO_36.1090_-79.9153_35_90.csv)

New Loadshape.GSO_36.1090_-79.9153_25_225 npts= 35040 interval=0.25 mult = (file=../../../../profiles/GSO_36.1090_-79.9153_25_225.csv)

New Loadshape.GSO_36.1090_-79.9153_45_270 npts= 35040 interval=0.25 mult = (file=../../../../profiles/GSO_36.1090_-79.9153_45_270.csv)

New Loadshape.GSO_36.1090_-79.9153_55_270 npts= 35040 interval=0.25 mult = (file=../../../../profiles/GSO_36.1090_-79.9153_55_270.csv)

New Loadshape.GSO_36.1090_-79.9153_45_90 npts= 35040 interval=0.25 mult = (file=../../../../profiles/GSO_36.1090_-79.9153_45_90.csv)

New Loadshape.GSO_36.1090_-79.9153_55_180 npts= 35040 interval=0.25 mult = (file=../../../../profiles/GSO_36.1090_-79.9153_55_180.csv)

New Loadshape.GSO_36.1090_-79.9153_55_90 npts= 35040 interval=0.25 mult = (file=../../../../profiles/GSO_36.1090_-79.9153_55_90.csv)

New Loadshape.GSO_36.1090_-79.9153_55_135 npts= 35040 interval=0.25 mult = (file=../../../../profiles/GSO_36.1090_-79.9153_55_135.csv)

New Loadshape.res_kw_1258_pu npts= 35040 interval=0.25 mult = (file=../../../../profiles/res_kw_1258_pu.csv) qmult = (file=../../../../profiles/res_kvar_1258_pu.csv)

New Loadshape.res_kw_517_pu npts= 35040 interval=0.25 mult = (file=../../../../profiles/res_kw_517_pu.csv) qmult = (file=../../../../profiles/res_kvar_517_pu.csv)

New Loadshape.res_kw_1228_pu npts= 35040 interval=0.25 mult = (file=../../../../profiles/res_kw_1228_pu.csv) qmult = (file=../../../../profiles/res_kvar_1228_pu.csv)

New Loadshape.res_kw_46_pu npts= 35040 interval=0.25 mult = (file=../../../../profiles/res_kw_46_pu.csv) qmult = (file=../../../../profiles/res_kvar_46_pu.csv)

New Loadshape.res_kw_4_pu npts= 35040 interval=0.25 mult = (file=../../../../profiles/res_kw_4_pu.csv) qmult = (file=../../../../profiles/res_kvar_4_pu.csv)

New Loadshape.res_kw_1273_pu npts= 35040 interval=0.25 mult = (file=../../../../profiles/res_kw_1273_pu.csv) qmult = (file=../../../../profiles/res_kvar_1273_pu.csv)

New Loadshape.res_kw_1267_pu npts= 35040 interval=0.25 mult = (file=../../../../profiles/res_kw_1267_pu.csv) qmult = (file=../../../../profiles/res_kvar_1267_pu.csv)

New Loadshape.res_kw_627_pu npts= 35040 interval=0.25 mult = (file=../../../../profiles/res_kw_627_pu.csv) qmult = (file=../../../../profiles/res_kvar_627_pu.csv)

New Loadshape.res_kw_33_pu npts= 35040 interval=0.25 mult = (file=../../../../profiles/res_kw_33_pu.csv) qmult = (file=../../../../profiles/res_kvar_33_pu.csv)

New Loadshape.res_kw_20_pu npts= 35040 interval=0.25 mult = (file=../../../../profiles/res_kw_20_pu.csv) qmult = (file=../../../../profiles/res_kvar_20_pu.csv)

New Loadshape.res_kw_59_pu npts= 35040 interval=0.25 mult = (file=../../../../profiles/res_kw_59_pu.csv) qmult = (file=../../../../profiles/res_kvar_59_pu.csv)

New Loadshape.res_kw_860_pu npts= 35040 interval=0.25 mult = (file=../../../../profiles/res_kw_860_pu.csv) qmult = (file=../../../../profiles/res_kvar_860_pu.csv)

New Loadshape.res_kw_128_pu npts= 35040 interval=0.25 mult = (file=../../../../profiles/res_kw_128_pu.csv) qmult = (file=../../../../profiles/res_kvar_128_pu.csv)

New Loadshape.res_kw_892_pu npts= 35040 interval=0.25 mult = (file=../../../../profiles/res_kw_892_pu.csv) qmult = (file=../../../../profiles/res_kvar_892_pu.csv)

New Loadshape.res_kw_861_pu npts= 35040 interval=0.25 mult = (file=../../../../profiles/res_kw_861_pu.csv) qmult = (file=../../../../profiles/res_kvar_861_pu.csv)

New Loadshape.res_kw_454_pu npts= 35040 interval=0.25 mult = (file=../../../../profiles/res_kw_454_pu.csv) qmult = (file=../../../../profiles/res_kvar_454_pu.csv)

New Loadshape.res_kw_1074_pu npts= 35040 interval=0.25 mult = (file=../../../../profiles/res_kw_1074_pu.csv) qmult = (file=../../../../profiles/res_kvar_1074_pu.csv)

New Loadshape.res_kw_178_pu npts= 35040 interval=0.25 mult = (file=../../../../profiles/res_kw_178_pu.csv) qmult = (file=../../../../profiles/res_kvar_178_pu.csv)

New Loadshape.res_kw_843_pu npts= 35040 interval=0.25 mult = (file=../../../../profiles/res_kw_843_pu.csv) qmult = (file=../../../../profiles/res_kvar_843_pu.csv)

New Loadshape.res_kw_421_pu npts= 35040 interval=0.25 mult = (file=../../../../profiles/res_kw_421_pu.csv) qmult = (file=../../../../profiles/res_kvar_421_pu.csv)

New Loadshape.res_kw_1226_pu npts= 35040 interval=0.25 mult = (file=../../../../profiles/res_kw_1226_pu.csv) qmult = (file=../../../../profiles/res_kvar_1226_pu.csv)

New Loadshape.res_kw_626_pu npts= 35040 interval=0.25 mult = (file=../../../../profiles/res_kw_626_pu.csv) qmult = (file=../../../../profiles/res_kvar_626_pu.csv)

New Loadshape.res_kw_225_pu npts= 35040 interval=0.25 mult = (file=../../../../profiles/res_kw_225_pu.csv) qmult = (file=../../../../profiles/res_kvar_225_pu.csv)

New Loadshape.res_kw_1094_pu npts= 35040 interval=0.25 mult = (file=../../../../profiles/res_kw_1094_pu.csv) qmult = (file=../../../../profiles/res_kvar_1094_pu.csv)

New Loadshape.res_kw_1205_pu npts= 35040 interval=0.25 mult = (file=../../../../profiles/res_kw_1205_pu.csv) qmult = (file=../../../../profiles/res_kvar_1205_pu.csv)

New Loadshape.res_kw_597_pu npts= 35040 interval=0.25 mult = (file=../../../../profiles/res_kw_597_pu.csv) qmult = (file=../../../../profiles/res_kvar_597_pu.csv)

New Loadshape.res_kw_512_pu npts= 35040 interval=0.25 mult = (file=../../../../profiles/res_kw_512_pu.csv) qmult = (file=../../../../profiles/res_kvar_512_pu.csv)

New Loadshape.res_kw_1149_pu npts= 35040 interval=0.25 mult = (file=../../../../profiles/res_kw_1149_pu.csv) qmult = (file=../../../../profiles/res_kvar_1149_pu.csv)

New Loadshape.res_kw_75_pu npts= 35040 interval=0.25 mult = (file=../../../../profiles/res_kw_75_pu.csv) qmult = (file=../../../../profiles/res_kvar_75_pu.csv)

New Loadshape.res_kw_1276_pu npts= 35040 interval=0.25 mult = (file=../../../../profiles/res_kw_1276_pu.csv) qmult = (file=../../../../profiles/res_kvar_1276_pu.csv)

New Loadshape.res_kw_453_pu npts= 35040 interval=0.25 mult = (file=../../../../profiles/res_kw_453_pu.csv) qmult = (file=../../../../profiles/res_kvar_453_pu.csv)

New Loadshape.res_kw_409_pu npts= 35040 interval=0.25 mult = (file=../../../../profiles/res_kw_409_pu.csv) qmult = (file=../../../../profiles/res_kvar_409_pu.csv)

New Loadshape.res_kw_1070_pu npts= 35040 interval=0.25 mult = (file=../../../../profiles/res_kw_1070_pu.csv) qmult = (file=../../../../profiles/res_kvar_1070_pu.csv)

New Loadshape.res_kw_160_pu npts= 35040 interval=0.25 mult = (file=../../../../profiles/res_kw_160_pu.csv) qmult = (file=../../../../profiles/res_kvar_160_pu.csv)

New Loadshape.res_kw_1040_pu npts= 35040 interval=0.25 mult = (file=../../../../profiles/res_kw_1040_pu.csv) qmult = (file=../../../../profiles/res_kvar_1040_pu.csv)

New Loadshape.res_kw_236_pu npts= 35040 interval=0.25 mult = (file=../../../../profiles/res_kw_236_pu.csv) qmult = (file=../../../../profiles/res_kvar_236_pu.csv)

New Loadshape.res_kw_630_pu npts= 35040 interval=0.25 mult = (file=../../../../profiles/res_kw_630_pu.csv) qmult = (file=../../../../profiles/res_kvar_630_pu.csv)

New Loadshape.res_kw_268_pu npts= 35040 interval=0.25 mult = (file=../../../../profiles/res_kw_268_pu.csv) qmult = (file=../../../../profiles/res_kvar_268_pu.csv)

New Loadshape.res_kw_229_pu npts= 35040 interval=0.25 mult = (file=../../../../profiles/res_kw_229_pu.csv) qmult = (file=../../../../profiles/res_kvar_229_pu.csv)

New Loadshape.res_kw_217_pu npts= 35040 interval=0.25 mult = (file=../../../../profiles/res_kw_217_pu.csv) qmult = (file=../../../../profiles/res_kvar_217_pu.csv)

New Loadshape.res_kw_910_pu npts= 35040 interval=0.25 mult = (file=../../../../profiles/res_kw_910_pu.csv) qmult = (file=../../../../profiles/res_kvar_910_pu.csv)

New Loadshape.res_kw_933_pu npts= 35040 interval=0.25 mult = (file=../../../../profiles/res_kw_933_pu.csv) qmult = (file=../../../../profiles/res_kvar_933_pu.csv)

New Loadshape.res_kw_947_pu npts= 35040 interval=0.25 mult = (file=../../../../profiles/res_kw_947_pu.csv) qmult = (file=../../../../profiles/res_kvar_947_pu.csv)

New Loadshape.res_kw_1162_pu npts= 35040 interval=0.25 mult = (file=../../../../profiles/res_kw_1162_pu.csv) qmult = (file=../../../../profiles/res_kvar_1162_pu.csv)

New Loadshape.res_kw_710_pu npts= 35040 interval=0.25 mult = (file=../../../../profiles/res_kw_710_pu.csv) qmult = (file=../../../../profiles/res_kvar_710_pu.csv)

New Loadshape.res_kw_681_pu npts= 35040 interval=0.25 mult = (file=../../../../profiles/res_kw_681_pu.csv) qmult = (file=../../../../profiles/res_kvar_681_pu.csv)

New Loadshape.res_kw_141_pu npts= 35040 interval=0.25 mult = (file=../../../../profiles/res_kw_141_pu.csv) qmult = (file=../../../../profiles/res_kvar_141_pu.csv)

New Loadshape.res_kw_1036_pu npts= 35040 interval=0.25 mult = (file=../../../../profiles/res_kw_1036_pu.csv) qmult = (file=../../../../profiles/res_kvar_1036_pu.csv)

New Loadshape.res_kw_689_pu npts= 35040 interval=0.25 mult = (file=../../../../profiles/res_kw_689_pu.csv) qmult = (file=../../../../profiles/res_kvar_689_pu.csv)

New Loadshape.res_kw_38_pu npts= 35040 interval=0.25 mult = (file=../../../../profiles/res_kw_38_pu.csv) qmult = (file=../../../../profiles/res_kvar_38_pu.csv)

New Loadshape.res_kw_822_pu npts= 35040 interval=0.25 mult = (file=../../../../profiles/res_kw_822_pu.csv) qmult = (file=../../../../profiles/res_kvar_822_pu.csv)

New Loadshape.res_kw_504_pu npts= 35040 interval=0.25 mult = (file=../../../../profiles/res_kw_504_pu.csv) qmult = (file=../../../../profiles/res_kvar_504_pu.csv)

New Loadshape.res_kw_1128_pu npts= 35040 interval=0.25 mult = (file=../../../../profiles/res_kw_1128_pu.csv) qmult = (file=../../../../profiles/res_kvar_1128_pu.csv)

New Loadshape.res_kw_1180_pu npts= 35040 interval=0.25 mult = (file=../../../../profiles/res_kw_1180_pu.csv) qmult = (file=../../../../profiles/res_kvar_1180_pu.csv)

New Loadshape.res_kw_1256_pu npts= 35040 interval=0.25 mult = (file=../../../../profiles/res_kw_1256_pu.csv) qmult = (file=../../../../profiles/res_kvar_1256_pu.csv)

New Loadshape.res_kw_898_pu npts= 35040 interval=0.25 mult = (file=../../../../profiles/res_kw_898_pu.csv) qmult = (file=../../../../profiles/res_kvar_898_pu.csv)

New Loadshape.res_kw_319_pu npts= 35040 interval=0.25 mult = (file=../../../../profiles/res_kw_319_pu.csv) qmult = (file=../../../../profiles/res_kvar_319_pu.csv)

New Loadshape.res_kw_1190_pu npts= 35040 interval=0.25 mult = (file=../../../../profiles/res_kw_1190_pu.csv) qmult = (file=../../../../profiles/res_kvar_1190_pu.csv)

New Loadshape.res_kw_889_pu npts= 35040 interval=0.25 mult = (file=../../../../profiles/res_kw_889_pu.csv) qmult = (file=../../../../profiles/res_kvar_889_pu.csv)

New Loadshape.res_kw_598_pu npts= 35040 interval=0.25 mult = (file=../../../../profiles/res_kw_598_pu.csv) qmult = (file=../../../../profiles/res_kvar_598_pu.csv)

New Loadshape.res_kw_123_pu npts= 35040 interval=0.25 mult = (file=../../../../profiles/res_kw_123_pu.csv) qmult = (file=../../../../profiles/res_kvar_123_pu.csv)

New Loadshape.res_kw_1089_pu npts= 35040 interval=0.25 mult = (file=../../../../profiles/res_kw_1089_pu.csv) qmult = (file=../../../../profiles/res_kvar_1089_pu.csv)

New Loadshape.res_kw_748_pu npts= 35040 interval=0.25 mult = (file=../../../../profiles/res_kw_748_pu.csv) qmult = (file=../../../../profiles/res_kvar_748_pu.csv)

New Loadshape.res_kw_795_pu npts= 35040 interval=0.25 mult = (file=../../../../profiles/res_kw_795_pu.csv) qmult = (file=../../../../profiles/res_kvar_795_pu.csv)

New Loadshape.res_kw_1266_pu npts= 35040 interval=0.25 mult = (file=../../../../profiles/res_kw_1266_pu.csv) qmult = (file=../../../../profiles/res_kvar_1266_pu.csv)

New Loadshape.res_kw_271_pu npts= 35040 interval=0.25 mult = (file=../../../../profiles/res_kw_271_pu.csv) qmult = (file=../../../../profiles/res_kvar_271_pu.csv)

New Loadshape.res_kw_1229_pu npts= 35040 interval=0.25 mult = (file=../../../../profiles/res_kw_1229_pu.csv) qmult = (file=../../../../profiles/res_kvar_1229_pu.csv)

New Loadshape.res_kw_1187_pu npts= 35040 interval=0.25 mult = (file=../../../../profiles/res_kw_1187_pu.csv) qmult = (file=../../../../profiles/res_kvar_1187_pu.csv)

New Loadshape.res_kw_305_pu npts= 35040 interval=0.25 mult = (file=../../../../profiles/res_kw_305_pu.csv) qmult = (file=../../../../profiles/res_kvar_305_pu.csv)

New Loadshape.res_kw_520_pu npts= 35040 interval=0.25 mult = (file=../../../../profiles/res_kw_520_pu.csv) qmult = (file=../../../../profiles/res_kvar_520_pu.csv)

New Loadshape.res_kw_606_pu npts= 35040 interval=0.25 mult = (file=../../../../profiles/res_kw_606_pu.csv) qmult = (file=../../../../profiles/res_kvar_606_pu.csv)

New Loadshape.res_kw_932_pu npts= 35040 interval=0.25 mult = (file=../../../../profiles/res_kw_932_pu.csv) qmult = (file=../../../../profiles/res_kvar_932_pu.csv)

New Loadshape.res_kw_88_pu npts= 35040 interval=0.25 mult = (file=../../../../profiles/res_kw_88_pu.csv) qmult = (file=../../../../profiles/res_kvar_88_pu.csv)

New Loadshape.res_kw_401_pu npts= 35040 interval=0.25 mult = (file=../../../../profiles/res_kw_401_pu.csv) qmult = (file=../../../../profiles/res_kvar_401_pu.csv)

New Loadshape.res_kw_263_pu npts= 35040 interval=0.25 mult = (file=../../../../profiles/res_kw_263_pu.csv) qmult = (file=../../../../profiles/res_kvar_263_pu.csv)

New Loadshape.res_kw_863_pu npts= 35040 interval=0.25 mult = (file=../../../../profiles/res_kw_863_pu.csv) qmult = (file=../../../../profiles/res_kvar_863_pu.csv)

New Loadshape.res_kw_1283_pu npts= 35040 interval=0.25 mult = (file=../../../../profiles/res_kw_1283_pu.csv) qmult = (file=../../../../profiles/res_kvar_1283_pu.csv)

New Loadshape.res_kw_1138_pu npts= 35040 interval=0.25 mult = (file=../../../../profiles/res_kw_1138_pu.csv) qmult = (file=../../../../profiles/res_kvar_1138_pu.csv)

New Loadshape.res_kw_267_pu npts= 35040 interval=0.25 mult = (file=../../../../profiles/res_kw_267_pu.csv) qmult = (file=../../../../profiles/res_kvar_267_pu.csv)

New Loadshape.res_kw_1013_pu npts= 35040 interval=0.25 mult = (file=../../../../profiles/res_kw_1013_pu.csv) qmult = (file=../../../../profiles/res_kvar_1013_pu.csv)

New Loadshape.res_kw_664_pu npts= 35040 interval=0.25 mult = (file=../../../../profiles/res_kw_664_pu.csv) qmult = (file=../../../../profiles/res_kvar_664_pu.csv)

New Loadshape.res_kw_331_pu npts= 35040 interval=0.25 mult = (file=../../../../profiles/res_kw_331_pu.csv) qmult = (file=../../../../profiles/res_kvar_331_pu.csv)

New Loadshape.res_kw_852_pu npts= 35040 interval=0.25 mult = (file=../../../../profiles/res_kw_852_pu.csv) qmult = (file=../../../../profiles/res_kvar_852_pu.csv)

New Loadshape.res_kw_1157_pu npts= 35040 interval=0.25 mult = (file=../../../../profiles/res_kw_1157_pu.csv) qmult = (file=../../../../profiles/res_kvar_1157_pu.csv)

New Loadshape.res_kw_872_pu npts= 35040 interval=0.25 mult = (file=../../../../profiles/res_kw_872_pu.csv) qmult = (file=../../../../profiles/res_kvar_872_pu.csv)

New Loadshape.res_kw_779_pu npts= 35040 interval=0.25 mult = (file=../../../../profiles/res_kw_779_pu.csv) qmult = (file=../../../../profiles/res_kvar_779_pu.csv)

New Loadshape.res_kw_1277_pu npts= 35040 interval=0.25 mult = (file=../../../../profiles/res_kw_1277_pu.csv) qmult = (file=../../../../profiles/res_kvar_1277_pu.csv)

New Loadshape.res_kw_691_pu npts= 35040 interval=0.25 mult = (file=../../../../profiles/res_kw_691_pu.csv) qmult = (file=../../../../profiles/res_kvar_691_pu.csv)

New Loadshape.res_kw_76_pu npts= 35040 interval=0.25 mult = (file=../../../../profiles/res_kw_76_pu.csv) qmult = (file=../../../../profiles/res_kvar_76_pu.csv)

New Loadshape.res_kw_829_pu npts= 35040 interval=0.25 mult = (file=../../../../profiles/res_kw_829_pu.csv) qmult = (file=../../../../profiles/res_kvar_829_pu.csv)

New Loadshape.res_kw_1083_pu npts= 35040 interval=0.25 mult = (file=../../../../profiles/res_kw_1083_pu.csv) qmult = (file=../../../../profiles/res_kvar_1083_pu.csv)

New Loadshape.res_kw_532_pu npts= 35040 interval=0.25 mult = (file=../../../../profiles/res_kw_532_pu.csv) qmult = (file=../../../../profiles/res_kvar_532_pu.csv)

New Loadshape.res_kw_617_pu npts= 35040 interval=0.25 mult = (file=../../../../profiles/res_kw_617_pu.csv) qmult = (file=../../../../profiles/res_kvar_617_pu.csv)

New Loadshape.res_kw_464_pu npts= 35040 interval=0.25 mult = (file=../../../../profiles/res_kw_464_pu.csv) qmult = (file=../../../../profiles/res_kvar_464_pu.csv)

New Loadshape.res_kw_663_pu npts= 35040 interval=0.25 mult = (file=../../../../profiles/res_kw_663_pu.csv) qmult = (file=../../../../profiles/res_kvar_663_pu.csv)

New Loadshape.res_kw_314_pu npts= 35040 interval=0.25 mult = (file=../../../../profiles/res_kw_314_pu.csv) qmult = (file=../../../../profiles/res_kvar_314_pu.csv)

New Loadshape.res_kw_513_pu npts= 35040 interval=0.25 mult = (file=../../../../profiles/res_kw_513_pu.csv) qmult = (file=../../../../profiles/res_kvar_513_pu.csv)

New Loadshape.res_kw_324_pu npts= 35040 interval=0.25 mult = (file=../../../../profiles/res_kw_324_pu.csv) qmult = (file=../../../../profiles/res_kvar_324_pu.csv)

New Loadshape.res_kw_197_pu npts= 35040 interval=0.25 mult = (file=../../../../profiles/res_kw_197_pu.csv) qmult = (file=../../../../profiles/res_kvar_197_pu.csv)

New Loadshape.res_kw_549_pu npts= 35040 interval=0.25 mult = (file=../../../../profiles/res_kw_549_pu.csv) qmult = (file=../../../../profiles/res_kvar_549_pu.csv)

New Loadshape.res_kw_560_pu npts= 35040 interval=0.25 mult = (file=../../../../profiles/res_kw_560_pu.csv) qmult = (file=../../../../profiles/res_kvar_560_pu.csv)

New Loadshape.res_kw_203_pu npts= 35040 interval=0.25 mult = (file=../../../../profiles/res_kw_203_pu.csv) qmult = (file=../../../../profiles/res_kvar_203_pu.csv)

New Loadshape.res_kw_317_pu npts= 35040 interval=0.25 mult = (file=../../../../profiles/res_kw_317_pu.csv) qmult = (file=../../../../profiles/res_kvar_317_pu.csv)

New Loadshape.res_kw_522_pu npts= 35040 interval=0.25 mult = (file=../../../../profiles/res_kw_522_pu.csv) qmult = (file=../../../../profiles/res_kvar_522_pu.csv)

New Loadshape.res_kw_24_pu npts= 35040 interval=0.25 mult = (file=../../../../profiles/res_kw_24_pu.csv) qmult = (file=../../../../profiles/res_kvar_24_pu.csv)

New Loadshape.res_kw_825_pu npts= 35040 interval=0.25 mult = (file=../../../../profiles/res_kw_825_pu.csv) qmult = (file=../../../../profiles/res_kvar_825_pu.csv)

New Loadshape.res_kw_93_pu npts= 35040 interval=0.25 mult = (file=../../../../profiles/res_kw_93_pu.csv) qmult = (file=../../../../profiles/res_kvar_93_pu.csv)

New Loadshape.res_kw_452_pu npts= 35040 interval=0.25 mult = (file=../../../../profiles/res_kw_452_pu.csv) qmult = (file=../../../../profiles/res_kvar_452_pu.csv)

New Loadshape.res_kw_1159_pu npts= 35040 interval=0.25 mult = (file=../../../../profiles/res_kw_1159_pu.csv) qmult = (file=../../../../profiles/res_kvar_1159_pu.csv)

New Loadshape.res_kw_1105_pu npts= 35040 interval=0.25 mult = (file=../../../../profiles/res_kw_1105_pu.csv) qmult = (file=../../../../profiles/res_kvar_1105_pu.csv)

New Loadshape.res_kw_1186_pu npts= 35040 interval=0.25 mult = (file=../../../../profiles/res_kw_1186_pu.csv) qmult = (file=../../../../profiles/res_kvar_1186_pu.csv)

New Loadshape.res_kw_455_pu npts= 35040 interval=0.25 mult = (file=../../../../profiles/res_kw_455_pu.csv) qmult = (file=../../../../profiles/res_kvar_455_pu.csv)

New Loadshape.res_kw_696_pu npts= 35040 interval=0.25 mult = (file=../../../../profiles/res_kw_696_pu.csv) qmult = (file=../../../../profiles/res_kvar_696_pu.csv)

New Loadshape.res_kw_199_pu npts= 35040 interval=0.25 mult = (file=../../../../profiles/res_kw_199_pu.csv) qmult = (file=../../../../profiles/res_kvar_199_pu.csv)

New Loadshape.res_kw_670_pu npts= 35040 interval=0.25 mult = (file=../../../../profiles/res_kw_670_pu.csv) qmult = (file=../../../../profiles/res_kvar_670_pu.csv)

New Loadshape.res_kw_625_pu npts= 35040 interval=0.25 mult = (file=../../../../profiles/res_kw_625_pu.csv) qmult = (file=../../../../profiles/res_kvar_625_pu.csv)

New Loadshape.res_kw_1042_pu npts= 35040 interval=0.25 mult = (file=../../../../profiles/res_kw_1042_pu.csv) qmult = (file=../../../../profiles/res_kvar_1042_pu.csv)

New Loadshape.res_kw_523_pu npts= 35040 interval=0.25 mult = (file=../../../../profiles/res_kw_523_pu.csv) qmult = (file=../../../../profiles/res_kvar_523_pu.csv)

New Loadshape.res_kw_1037_pu npts= 35040 interval=0.25 mult = (file=../../../../profiles/res_kw_1037_pu.csv) qmult = (file=../../../../profiles/res_kvar_1037_pu.csv)

New Loadshape.res_kw_362_pu npts= 35040 interval=0.25 mult = (file=../../../../profiles/res_kw_362_pu.csv) qmult = (file=../../../../profiles/res_kvar_362_pu.csv)

New Loadshape.res_kw_162_pu npts= 35040 interval=0.25 mult = (file=../../../../profiles/res_kw_162_pu.csv) qmult = (file=../../../../profiles/res_kvar_162_pu.csv)

New Loadshape.res_kw_462_pu npts= 35040 interval=0.25 mult = (file=../../../../profiles/res_kw_462_pu.csv) qmult = (file=../../../../profiles/res_kvar_462_pu.csv)

New Loadshape.res_kw_169_pu npts= 35040 interval=0.25 mult = (file=../../../../profiles/res_kw_169_pu.csv) qmult = (file=../../../../profiles/res_kvar_169_pu.csv)

New Loadshape.res_kw_250_pu npts= 35040 interval=0.25 mult = (file=../../../../profiles/res_kw_250_pu.csv) qmult = (file=../../../../profiles/res_kvar_250_pu.csv)

New Loadshape.res_kw_842_pu npts= 35040 interval=0.25 mult = (file=../../../../profiles/res_kw_842_pu.csv) qmult = (file=../../../../profiles/res_kvar_842_pu.csv)

New Loadshape.res_kw_1115_pu npts= 35040 interval=0.25 mult = (file=../../../../profiles/res_kw_1115_pu.csv) qmult = (file=../../../../profiles/res_kvar_1115_pu.csv)

New Loadshape.res_kw_98_pu npts= 35040 interval=0.25 mult = (file=../../../../profiles/res_kw_98_pu.csv) qmult = (file=../../../../profiles/res_kvar_98_pu.csv)

New Loadshape.res_kw_470_pu npts= 35040 interval=0.25 mult = (file=../../../../profiles/res_kw_470_pu.csv) qmult = (file=../../../../profiles/res_kvar_470_pu.csv)

New Loadshape.res_kw_1023_pu npts= 35040 interval=0.25 mult = (file=../../../../profiles/res_kw_1023_pu.csv) qmult = (file=../../../../profiles/res_kvar_1023_pu.csv)

New Loadshape.res_kw_138_pu npts= 35040 interval=0.25 mult = (file=../../../../profiles/res_kw_138_pu.csv) qmult = (file=../../../../profiles/res_kvar_138_pu.csv)

New Loadshape.res_kw_216_pu npts= 35040 interval=0.25 mult = (file=../../../../profiles/res_kw_216_pu.csv) qmult = (file=../../../../profiles/res_kvar_216_pu.csv)

New Loadshape.res_kw_205_pu npts= 35040 interval=0.25 mult = (file=../../../../profiles/res_kw_205_pu.csv) qmult = (file=../../../../profiles/res_kvar_205_pu.csv)

New Loadshape.res_kw_579_pu npts= 35040 interval=0.25 mult = (file=../../../../profiles/res_kw_579_pu.csv) qmult = (file=../../../../profiles/res_kvar_579_pu.csv)

New Loadshape.res_kw_1200_pu npts= 35040 interval=0.25 mult = (file=../../../../profiles/res_kw_1200_pu.csv) qmult = (file=../../../../profiles/res_kvar_1200_pu.csv)

New Loadshape.res_kw_1160_pu npts= 35040 interval=0.25 mult = (file=../../../../profiles/res_kw_1160_pu.csv) qmult = (file=../../../../profiles/res_kvar_1160_pu.csv)

New Loadshape.res_kw_548_pu npts= 35040 interval=0.25 mult = (file=../../../../profiles/res_kw_548_pu.csv) qmult = (file=../../../../profiles/res_kvar_548_pu.csv)

New Loadshape.res_kw_298_pu npts= 35040 interval=0.25 mult = (file=../../../../profiles/res_kw_298_pu.csv) qmult = (file=../../../../profiles/res_kvar_298_pu.csv)

New Loadshape.res_kw_754_pu npts= 35040 interval=0.25 mult = (file=../../../../profiles/res_kw_754_pu.csv) qmult = (file=../../../../profiles/res_kvar_754_pu.csv)

New Loadshape.res_kw_806_pu npts= 35040 interval=0.25 mult = (file=../../../../profiles/res_kw_806_pu.csv) qmult = (file=../../../../profiles/res_kvar_806_pu.csv)

New Loadshape.res_kw_411_pu npts= 35040 interval=0.25 mult = (file=../../../../profiles/res_kw_411_pu.csv) qmult = (file=../../../../profiles/res_kvar_411_pu.csv)

New Loadshape.res_kw_752_pu npts= 35040 interval=0.25 mult = (file=../../../../profiles/res_kw_752_pu.csv) qmult = (file=../../../../profiles/res_kvar_752_pu.csv)

New Loadshape.res_kw_740_pu npts= 35040 interval=0.25 mult = (file=../../../../profiles/res_kw_740_pu.csv) qmult = (file=../../../../profiles/res_kvar_740_pu.csv)

New Loadshape.res_kw_1041_pu npts= 35040 interval=0.25 mult = (file=../../../../profiles/res_kw_1041_pu.csv) qmult = (file=../../../../profiles/res_kvar_1041_pu.csv)

New Loadshape.res_kw_879_pu npts= 35040 interval=0.25 mult = (file=../../../../profiles/res_kw_879_pu.csv) qmult = (file=../../../../profiles/res_kvar_879_pu.csv)

New Loadshape.res_kw_654_pu npts= 35040 interval=0.25 mult = (file=../../../../profiles/res_kw_654_pu.csv) qmult = (file=../../../../profiles/res_kvar_654_pu.csv)

New Loadshape.res_kw_280_pu npts= 35040 interval=0.25 mult = (file=../../../../profiles/res_kw_280_pu.csv) qmult = (file=../../../../profiles/res_kvar_280_pu.csv)

New Loadshape.res_kw_561_pu npts= 35040 interval=0.25 mult = (file=../../../../profiles/res_kw_561_pu.csv) qmult = (file=../../../../profiles/res_kvar_561_pu.csv)

New Loadshape.res_kw_1108_pu npts= 35040 interval=0.25 mult = (file=../../../../profiles/res_kw_1108_pu.csv) qmult = (file=../../../../profiles/res_kvar_1108_pu.csv)

New Loadshape.res_kw_692_pu npts= 35040 interval=0.25 mult = (file=../../../../profiles/res_kw_692_pu.csv) qmult = (file=../../../../profiles/res_kvar_692_pu.csv)

New Loadshape.res_kw_507_pu npts= 35040 interval=0.25 mult = (file=../../../../profiles/res_kw_507_pu.csv) qmult = (file=../../../../profiles/res_kvar_507_pu.csv)

New Loadshape.res_kw_624_pu npts= 35040 interval=0.25 mult = (file=../../../../profiles/res_kw_624_pu.csv) qmult = (file=../../../../profiles/res_kvar_624_pu.csv)

New Loadshape.res_kw_264_pu npts= 35040 interval=0.25 mult = (file=../../../../profiles/res_kw_264_pu.csv) qmult = (file=../../../../profiles/res_kvar_264_pu.csv)

New Loadshape.res_kw_182_pu npts= 35040 interval=0.25 mult = (file=../../../../profiles/res_kw_182_pu.csv) qmult = (file=../../../../profiles/res_kvar_182_pu.csv)

New Loadshape.res_kw_327_pu npts= 35040 interval=0.25 mult = (file=../../../../profiles/res_kw_327_pu.csv) qmult = (file=../../../../profiles/res_kvar_327_pu.csv)

New Loadshape.res_kw_929_pu npts= 35040 interval=0.25 mult = (file=../../../../profiles/res_kw_929_pu.csv) qmult = (file=../../../../profiles/res_kvar_929_pu.csv)

New Loadshape.res_kw_917_pu npts= 35040 interval=0.25 mult = (file=../../../../profiles/res_kw_917_pu.csv) qmult = (file=../../../../profiles/res_kvar_917_pu.csv)

New Loadshape.res_kw_1248_pu npts= 35040 interval=0.25 mult = (file=../../../../profiles/res_kw_1248_pu.csv) qmult = (file=../../../../profiles/res_kvar_1248_pu.csv)

New Loadshape.res_kw_1112_pu npts= 35040 interval=0.25 mult = (file=../../../../profiles/res_kw_1112_pu.csv) qmult = (file=../../../../profiles/res_kvar_1112_pu.csv)

New Loadshape.res_kw_697_pu npts= 35040 interval=0.25 mult = (file=../../../../profiles/res_kw_697_pu.csv) qmult = (file=../../../../profiles/res_kvar_697_pu.csv)

New Loadshape.res_kw_339_pu npts= 35040 interval=0.25 mult = (file=../../../../profiles/res_kw_339_pu.csv) qmult = (file=../../../../profiles/res_kvar_339_pu.csv)

New Loadshape.res_kw_283_pu npts= 35040 interval=0.25 mult = (file=../../../../profiles/res_kw_283_pu.csv) qmult = (file=../../../../profiles/res_kvar_283_pu.csv)
