New Loadshape.GSO_36.0352_-79.9153_35_180 npts= 35040 interval=0.25 mult = (file=../../../../../profiles/GSO_36.0352_-79.9153_35_180.csv)

New Loadshape.GSO_36.0352_-79.9153_35_225 npts= 35040 interval=0.25 mult = (file=../../../../../profiles/GSO_36.0352_-79.9153_35_225.csv)

New Loadshape.GSO_36.0352_-79.9153_15_180 npts= 35040 interval=0.25 mult = (file=../../../../../profiles/GSO_36.0352_-79.9153_15_180.csv)

New Loadshape.GSO_36.0352_-79.9153_25_180 npts= 35040 interval=0.25 mult = (file=../../../../../profiles/GSO_36.0352_-79.9153_25_180.csv)

New Loadshape.GSO_36.0352_-79.9153_15_270 npts= 35040 interval=0.25 mult = (file=../../../../../profiles/GSO_36.0352_-79.9153_15_270.csv)

New Loadshape.GSO_36.0721_-79.9153_15_90 npts= 35040 interval=0.25 mult = (file=../../../../../profiles/GSO_36.0721_-79.9153_15_90.csv)

New Loadshape.GSO_36.0352_-79.9153_25_225 npts= 35040 interval=0.25 mult = (file=../../../../../profiles/GSO_36.0352_-79.9153_25_225.csv)

New Loadshape.GSO_36.0352_-79.9153_45_90 npts= 35040 interval=0.25 mult = (file=../../../../../profiles/GSO_36.0352_-79.9153_45_90.csv)

New Loadshape.GSO_36.0352_-79.9153_25_270 npts= 35040 interval=0.25 mult = (file=../../../../../profiles/GSO_36.0352_-79.9153_25_270.csv)

New Loadshape.GSO_36.0352_-79.9153_15_135 npts= 35040 interval=0.25 mult = (file=../../../../../profiles/GSO_36.0352_-79.9153_15_135.csv)

New Loadshape.GSO_36.0352_-79.9153_35_270 npts= 35040 interval=0.25 mult = (file=../../../../../profiles/GSO_36.0352_-79.9153_35_270.csv)

New Loadshape.GSO_36.0352_-79.9153_35_90 npts= 35040 interval=0.25 mult = (file=../../../../../profiles/GSO_36.0352_-79.9153_35_90.csv)

New Loadshape.GSO_36.0352_-79.9153_45_225 npts= 35040 interval=0.25 mult = (file=../../../../../profiles/GSO_36.0352_-79.9153_45_225.csv)

New Loadshape.GSO_36.0352_-79.9153_15_225 npts= 35040 interval=0.25 mult = (file=../../../../../profiles/GSO_36.0352_-79.9153_15_225.csv)

New Loadshape.GSO_36.0352_-79.9153_25_135 npts= 35040 interval=0.25 mult = (file=../../../../../profiles/GSO_36.0352_-79.9153_25_135.csv)

New Loadshape.GSO_36.0352_-79.9153_35_135 npts= 35040 interval=0.25 mult = (file=../../../../../profiles/GSO_36.0352_-79.9153_35_135.csv)

New Loadshape.GSO_36.0721_-79.9153_35_90 npts= 35040 interval=0.25 mult = (file=../../../../../profiles/GSO_36.0721_-79.9153_35_90.csv)

New Loadshape.GSO_36.0721_-79.9153_35_270 npts= 35040 interval=0.25 mult = (file=../../../../../profiles/GSO_36.0721_-79.9153_35_270.csv)

New Loadshape.GSO_36.0721_-79.9153_35_135 npts= 35040 interval=0.25 mult = (file=../../../../../profiles/GSO_36.0721_-79.9153_35_135.csv)

New Loadshape.GSO_36.0721_-79.9153_25_180 npts= 35040 interval=0.25 mult = (file=../../../../../profiles/GSO_36.0721_-79.9153_25_180.csv)

New Loadshape.GSO_36.0352_-79.9153_25_90 npts= 35040 interval=0.25 mult = (file=../../../../../profiles/GSO_36.0352_-79.9153_25_90.csv)

New Loadshape.GSO_36.0352_-79.9153_55_180 npts= 35040 interval=0.25 mult = (file=../../../../../profiles/GSO_36.0352_-79.9153_55_180.csv)

New Loadshape.GSO_36.0721_-79.9153_35_180 npts= 35040 interval=0.25 mult = (file=../../../../../profiles/GSO_36.0721_-79.9153_35_180.csv)

New Loadshape.GSO_36.0352_-79.9153_15_90 npts= 35040 interval=0.25 mult = (file=../../../../../profiles/GSO_36.0352_-79.9153_15_90.csv)

New Loadshape.GSO_36.0721_-79.9153_15_225 npts= 35040 interval=0.25 mult = (file=../../../../../profiles/GSO_36.0721_-79.9153_15_225.csv)

New Loadshape.GSO_36.0352_-79.9153_45_135 npts= 35040 interval=0.25 mult = (file=../../../../../profiles/GSO_36.0352_-79.9153_45_135.csv)

New Loadshape.GSO_36.0721_-79.9153_15_135 npts= 35040 interval=0.25 mult = (file=../../../../../profiles/GSO_36.0721_-79.9153_15_135.csv)

New Loadshape.GSO_36.0721_-79.9153_25_270 npts= 35040 interval=0.25 mult = (file=../../../../../profiles/GSO_36.0721_-79.9153_25_270.csv)

New Loadshape.GSO_36.0352_-79.9153_45_180 npts= 35040 interval=0.25 mult = (file=../../../../../profiles/GSO_36.0352_-79.9153_45_180.csv)

New Loadshape.GSO_36.0721_-79.9153_35_225 npts= 35040 interval=0.25 mult = (file=../../../../../profiles/GSO_36.0721_-79.9153_35_225.csv)

New Loadshape.GSO_36.0721_-79.9153_15_270 npts= 35040 interval=0.25 mult = (file=../../../../../profiles/GSO_36.0721_-79.9153_15_270.csv)

New Loadshape.GSO_36.0721_-79.9153_45_225 npts= 35040 interval=0.25 mult = (file=../../../../../profiles/GSO_36.0721_-79.9153_45_225.csv)

New Loadshape.GSO_36.0721_-79.9153_15_180 npts= 35040 interval=0.25 mult = (file=../../../../../profiles/GSO_36.0721_-79.9153_15_180.csv)

New Loadshape.GSO_36.0721_-79.9153_45_90 npts= 35040 interval=0.25 mult = (file=../../../../../profiles/GSO_36.0721_-79.9153_45_90.csv)

New Loadshape.GSO_36.0721_-79.9153_45_180 npts= 35040 interval=0.25 mult = (file=../../../../../profiles/GSO_36.0721_-79.9153_45_180.csv)

New Loadshape.GSO_36.0352_-79.9153_45_270 npts= 35040 interval=0.25 mult = (file=../../../../../profiles/GSO_36.0352_-79.9153_45_270.csv)

New Loadshape.GSO_36.0721_-79.9153_25_135 npts= 35040 interval=0.25 mult = (file=../../../../../profiles/GSO_36.0721_-79.9153_25_135.csv)

New Loadshape.GSO_36.0721_-79.9153_45_135 npts= 35040 interval=0.25 mult = (file=../../../../../profiles/GSO_36.0721_-79.9153_45_135.csv)

New Loadshape.GSO_36.0721_-79.9153_25_90 npts= 35040 interval=0.25 mult = (file=../../../../../profiles/GSO_36.0721_-79.9153_25_90.csv)

New Loadshape.GSO_36.0721_-79.9153_25_225 npts= 35040 interval=0.25 mult = (file=../../../../../profiles/GSO_36.0721_-79.9153_25_225.csv)

New Loadshape.res_kw_209_pu npts= 35040 interval=0.25 mult = (file=../../../../../profiles/res_kw_209_pu.csv) qmult = (file=../../../../../profiles/res_kvar_209_pu.csv)

New Loadshape.res_kw_24_pu npts= 35040 interval=0.25 mult = (file=../../../../../profiles/res_kw_24_pu.csv) qmult = (file=../../../../../profiles/res_kvar_24_pu.csv)

New Loadshape.res_kw_1115_pu npts= 35040 interval=0.25 mult = (file=../../../../../profiles/res_kw_1115_pu.csv) qmult = (file=../../../../../profiles/res_kvar_1115_pu.csv)

New Loadshape.res_kw_931_pu npts= 35040 interval=0.25 mult = (file=../../../../../profiles/res_kw_931_pu.csv) qmult = (file=../../../../../profiles/res_kvar_931_pu.csv)

New Loadshape.res_kw_523_pu npts= 35040 interval=0.25 mult = (file=../../../../../profiles/res_kw_523_pu.csv) qmult = (file=../../../../../profiles/res_kvar_523_pu.csv)

New Loadshape.res_kw_532_pu npts= 35040 interval=0.25 mult = (file=../../../../../profiles/res_kw_532_pu.csv) qmult = (file=../../../../../profiles/res_kvar_532_pu.csv)

New Loadshape.res_kw_654_pu npts= 35040 interval=0.25 mult = (file=../../../../../profiles/res_kw_654_pu.csv) qmult = (file=../../../../../profiles/res_kvar_654_pu.csv)

New Loadshape.res_kw_598_pu npts= 35040 interval=0.25 mult = (file=../../../../../profiles/res_kw_598_pu.csv) qmult = (file=../../../../../profiles/res_kvar_598_pu.csv)

New Loadshape.res_kw_630_pu npts= 35040 interval=0.25 mult = (file=../../../../../profiles/res_kw_630_pu.csv) qmult = (file=../../../../../profiles/res_kvar_630_pu.csv)

New Loadshape.res_kw_819_pu npts= 35040 interval=0.25 mult = (file=../../../../../profiles/res_kw_819_pu.csv) qmult = (file=../../../../../profiles/res_kvar_819_pu.csv)

New Loadshape.res_kw_807_pu npts= 35040 interval=0.25 mult = (file=../../../../../profiles/res_kw_807_pu.csv) qmult = (file=../../../../../profiles/res_kvar_807_pu.csv)

New Loadshape.res_kw_33_pu npts= 35040 interval=0.25 mult = (file=../../../../../profiles/res_kw_33_pu.csv) qmult = (file=../../../../../profiles/res_kvar_33_pu.csv)

New Loadshape.res_kw_625_pu npts= 35040 interval=0.25 mult = (file=../../../../../profiles/res_kw_625_pu.csv) qmult = (file=../../../../../profiles/res_kvar_625_pu.csv)

New Loadshape.res_kw_93_pu npts= 35040 interval=0.25 mult = (file=../../../../../profiles/res_kw_93_pu.csv) qmult = (file=../../../../../profiles/res_kvar_93_pu.csv)

New Loadshape.res_kw_263_pu npts= 35040 interval=0.25 mult = (file=../../../../../profiles/res_kw_263_pu.csv) qmult = (file=../../../../../profiles/res_kvar_263_pu.csv)

New Loadshape.res_kw_314_pu npts= 35040 interval=0.25 mult = (file=../../../../../profiles/res_kw_314_pu.csv) qmult = (file=../../../../../profiles/res_kvar_314_pu.csv)

New Loadshape.res_kw_1273_pu npts= 35040 interval=0.25 mult = (file=../../../../../profiles/res_kw_1273_pu.csv) qmult = (file=../../../../../profiles/res_kvar_1273_pu.csv)

New Loadshape.res_kw_627_pu npts= 35040 interval=0.25 mult = (file=../../../../../profiles/res_kw_627_pu.csv) qmult = (file=../../../../../profiles/res_kvar_627_pu.csv)

New Loadshape.res_kw_162_pu npts= 35040 interval=0.25 mult = (file=../../../../../profiles/res_kw_162_pu.csv) qmult = (file=../../../../../profiles/res_kvar_162_pu.csv)

New Loadshape.res_kw_861_pu npts= 35040 interval=0.25 mult = (file=../../../../../profiles/res_kw_861_pu.csv) qmult = (file=../../../../../profiles/res_kvar_861_pu.csv)

New Loadshape.res_kw_504_pu npts= 35040 interval=0.25 mult = (file=../../../../../profiles/res_kw_504_pu.csv) qmult = (file=../../../../../profiles/res_kvar_504_pu.csv)

New Loadshape.res_kw_454_pu npts= 35040 interval=0.25 mult = (file=../../../../../profiles/res_kw_454_pu.csv) qmult = (file=../../../../../profiles/res_kvar_454_pu.csv)

New Loadshape.res_kw_1239_pu npts= 35040 interval=0.25 mult = (file=../../../../../profiles/res_kw_1239_pu.csv) qmult = (file=../../../../../profiles/res_kvar_1239_pu.csv)

New Loadshape.res_kw_250_pu npts= 35040 interval=0.25 mult = (file=../../../../../profiles/res_kw_250_pu.csv) qmult = (file=../../../../../profiles/res_kvar_250_pu.csv)

New Loadshape.res_kw_822_pu npts= 35040 interval=0.25 mult = (file=../../../../../profiles/res_kw_822_pu.csv) qmult = (file=../../../../../profiles/res_kvar_822_pu.csv)

New Loadshape.res_kw_407_pu npts= 35040 interval=0.25 mult = (file=../../../../../profiles/res_kw_407_pu.csv) qmult = (file=../../../../../profiles/res_kvar_407_pu.csv)

New Loadshape.res_kw_748_pu npts= 35040 interval=0.25 mult = (file=../../../../../profiles/res_kw_748_pu.csv) qmult = (file=../../../../../profiles/res_kvar_748_pu.csv)

New Loadshape.res_kw_656_pu npts= 35040 interval=0.25 mult = (file=../../../../../profiles/res_kw_656_pu.csv) qmult = (file=../../../../../profiles/res_kvar_656_pu.csv)

New Loadshape.res_kw_452_pu npts= 35040 interval=0.25 mult = (file=../../../../../profiles/res_kw_452_pu.csv) qmult = (file=../../../../../profiles/res_kvar_452_pu.csv)

New Loadshape.res_kw_1104_pu npts= 35040 interval=0.25 mult = (file=../../../../../profiles/res_kw_1104_pu.csv) qmult = (file=../../../../../profiles/res_kvar_1104_pu.csv)

New Loadshape.res_kw_280_pu npts= 35040 interval=0.25 mult = (file=../../../../../profiles/res_kw_280_pu.csv) qmult = (file=../../../../../profiles/res_kvar_280_pu.csv)

New Loadshape.res_kw_40_pu npts= 35040 interval=0.25 mult = (file=../../../../../profiles/res_kw_40_pu.csv) qmult = (file=../../../../../profiles/res_kvar_40_pu.csv)

New Loadshape.res_kw_199_pu npts= 35040 interval=0.25 mult = (file=../../../../../profiles/res_kw_199_pu.csv) qmult = (file=../../../../../profiles/res_kvar_199_pu.csv)

New Loadshape.res_kw_1228_pu npts= 35040 interval=0.25 mult = (file=../../../../../profiles/res_kw_1228_pu.csv) qmult = (file=../../../../../profiles/res_kvar_1228_pu.csv)

New Loadshape.res_kw_1205_pu npts= 35040 interval=0.25 mult = (file=../../../../../profiles/res_kw_1205_pu.csv) qmult = (file=../../../../../profiles/res_kvar_1205_pu.csv)

New Loadshape.res_kw_585_pu npts= 35040 interval=0.25 mult = (file=../../../../../profiles/res_kw_585_pu.csv) qmult = (file=../../../../../profiles/res_kvar_585_pu.csv)

New Loadshape.res_kw_825_pu npts= 35040 interval=0.25 mult = (file=../../../../../profiles/res_kw_825_pu.csv) qmult = (file=../../../../../profiles/res_kvar_825_pu.csv)

New Loadshape.res_kw_558_pu npts= 35040 interval=0.25 mult = (file=../../../../../profiles/res_kw_558_pu.csv) qmult = (file=../../../../../profiles/res_kvar_558_pu.csv)

New Loadshape.res_kw_461_pu npts= 35040 interval=0.25 mult = (file=../../../../../profiles/res_kw_461_pu.csv) qmult = (file=../../../../../profiles/res_kvar_461_pu.csv)

New Loadshape.res_kw_842_pu npts= 35040 interval=0.25 mult = (file=../../../../../profiles/res_kw_842_pu.csv) qmult = (file=../../../../../profiles/res_kvar_842_pu.csv)

New Loadshape.res_kw_1220_pu npts= 35040 interval=0.25 mult = (file=../../../../../profiles/res_kw_1220_pu.csv) qmult = (file=../../../../../profiles/res_kvar_1220_pu.csv)

New Loadshape.res_kw_409_pu npts= 35040 interval=0.25 mult = (file=../../../../../profiles/res_kw_409_pu.csv) qmult = (file=../../../../../profiles/res_kvar_409_pu.csv)

New Loadshape.res_kw_1258_pu npts= 35040 interval=0.25 mult = (file=../../../../../profiles/res_kw_1258_pu.csv) qmult = (file=../../../../../profiles/res_kvar_1258_pu.csv)

New Loadshape.res_kw_517_pu npts= 35040 interval=0.25 mult = (file=../../../../../profiles/res_kw_517_pu.csv) qmult = (file=../../../../../profiles/res_kvar_517_pu.csv)

New Loadshape.res_kw_707_pu npts= 35040 interval=0.25 mult = (file=../../../../../profiles/res_kw_707_pu.csv) qmult = (file=../../../../../profiles/res_kvar_707_pu.csv)

New Loadshape.res_kw_691_pu npts= 35040 interval=0.25 mult = (file=../../../../../profiles/res_kw_691_pu.csv) qmult = (file=../../../../../profiles/res_kvar_691_pu.csv)

New Loadshape.res_kw_4_pu npts= 35040 interval=0.25 mult = (file=../../../../../profiles/res_kw_4_pu.csv) qmult = (file=../../../../../profiles/res_kvar_4_pu.csv)

New Loadshape.res_kw_1276_pu npts= 35040 interval=0.25 mult = (file=../../../../../profiles/res_kw_1276_pu.csv) qmult = (file=../../../../../profiles/res_kvar_1276_pu.csv)

New Loadshape.res_kw_1149_pu npts= 35040 interval=0.25 mult = (file=../../../../../profiles/res_kw_1149_pu.csv) qmult = (file=../../../../../profiles/res_kvar_1149_pu.csv)

New Loadshape.res_kw_1105_pu npts= 35040 interval=0.25 mult = (file=../../../../../profiles/res_kw_1105_pu.csv) qmult = (file=../../../../../profiles/res_kvar_1105_pu.csv)

New Loadshape.res_kw_597_pu npts= 35040 interval=0.25 mult = (file=../../../../../profiles/res_kw_597_pu.csv) qmult = (file=../../../../../profiles/res_kvar_597_pu.csv)

New Loadshape.res_kw_512_pu npts= 35040 interval=0.25 mult = (file=../../../../../profiles/res_kw_512_pu.csv) qmult = (file=../../../../../profiles/res_kvar_512_pu.csv)

New Loadshape.res_kw_462_pu npts= 35040 interval=0.25 mult = (file=../../../../../profiles/res_kw_462_pu.csv) qmult = (file=../../../../../profiles/res_kvar_462_pu.csv)

New Loadshape.res_kw_1160_pu npts= 35040 interval=0.25 mult = (file=../../../../../profiles/res_kw_1160_pu.csv) qmult = (file=../../../../../profiles/res_kvar_1160_pu.csv)

New Loadshape.res_kw_205_pu npts= 35040 interval=0.25 mult = (file=../../../../../profiles/res_kw_205_pu.csv) qmult = (file=../../../../../profiles/res_kvar_205_pu.csv)

New Loadshape.res_kw_522_pu npts= 35040 interval=0.25 mult = (file=../../../../../profiles/res_kw_522_pu.csv) qmult = (file=../../../../../profiles/res_kvar_522_pu.csv)

New Loadshape.res_kw_795_pu npts= 35040 interval=0.25 mult = (file=../../../../../profiles/res_kw_795_pu.csv) qmult = (file=../../../../../profiles/res_kvar_795_pu.csv)

New Loadshape.res_kw_1037_pu npts= 35040 interval=0.25 mult = (file=../../../../../profiles/res_kw_1037_pu.csv) qmult = (file=../../../../../profiles/res_kvar_1037_pu.csv)

New Loadshape.res_kw_1157_pu npts= 35040 interval=0.25 mult = (file=../../../../../profiles/res_kw_1157_pu.csv) qmult = (file=../../../../../profiles/res_kvar_1157_pu.csv)

New Loadshape.res_kw_1277_pu npts= 35040 interval=0.25 mult = (file=../../../../../profiles/res_kw_1277_pu.csv) qmult = (file=../../../../../profiles/res_kvar_1277_pu.csv)

New Loadshape.res_kw_670_pu npts= 35040 interval=0.25 mult = (file=../../../../../profiles/res_kw_670_pu.csv) qmult = (file=../../../../../profiles/res_kvar_670_pu.csv)

New Loadshape.res_kw_1256_pu npts= 35040 interval=0.25 mult = (file=../../../../../profiles/res_kw_1256_pu.csv) qmult = (file=../../../../../profiles/res_kvar_1256_pu.csv)

New Loadshape.res_kw_182_pu npts= 35040 interval=0.25 mult = (file=../../../../../profiles/res_kw_182_pu.csv) qmult = (file=../../../../../profiles/res_kvar_182_pu.csv)

New Loadshape.res_kw_1083_pu npts= 35040 interval=0.25 mult = (file=../../../../../profiles/res_kw_1083_pu.csv) qmult = (file=../../../../../profiles/res_kvar_1083_pu.csv)

New Loadshape.res_kw_355_pu npts= 35040 interval=0.25 mult = (file=../../../../../profiles/res_kw_355_pu.csv) qmult = (file=../../../../../profiles/res_kvar_355_pu.csv)

New Loadshape.res_kw_1186_pu npts= 35040 interval=0.25 mult = (file=../../../../../profiles/res_kw_1186_pu.csv) qmult = (file=../../../../../profiles/res_kvar_1186_pu.csv)

New Loadshape.res_kw_39_pu npts= 35040 interval=0.25 mult = (file=../../../../../profiles/res_kw_39_pu.csv) qmult = (file=../../../../../profiles/res_kvar_39_pu.csv)

New Loadshape.res_kw_231_pu npts= 35040 interval=0.25 mult = (file=../../../../../profiles/res_kw_231_pu.csv) qmult = (file=../../../../../profiles/res_kvar_231_pu.csv)

New Loadshape.res_kw_933_pu npts= 35040 interval=0.25 mult = (file=../../../../../profiles/res_kw_933_pu.csv) qmult = (file=../../../../../profiles/res_kvar_933_pu.csv)

New Loadshape.res_kw_645_pu npts= 35040 interval=0.25 mult = (file=../../../../../profiles/res_kw_645_pu.csv) qmult = (file=../../../../../profiles/res_kvar_645_pu.csv)

New Loadshape.res_kw_540_pu npts= 35040 interval=0.25 mult = (file=../../../../../profiles/res_kw_540_pu.csv) qmult = (file=../../../../../profiles/res_kvar_540_pu.csv)

New Loadshape.res_kw_879_pu npts= 35040 interval=0.25 mult = (file=../../../../../profiles/res_kw_879_pu.csv) qmult = (file=../../../../../profiles/res_kvar_879_pu.csv)

New Loadshape.res_kw_141_pu npts= 35040 interval=0.25 mult = (file=../../../../../profiles/res_kw_141_pu.csv) qmult = (file=../../../../../profiles/res_kvar_141_pu.csv)

New Loadshape.res_kw_780_pu npts= 35040 interval=0.25 mult = (file=../../../../../profiles/res_kw_780_pu.csv) qmult = (file=../../../../../profiles/res_kvar_780_pu.csv)

New Loadshape.res_kw_599_pu npts= 35040 interval=0.25 mult = (file=../../../../../profiles/res_kw_599_pu.csv) qmult = (file=../../../../../profiles/res_kvar_599_pu.csv)

New Loadshape.res_kw_21_pu npts= 35040 interval=0.25 mult = (file=../../../../../profiles/res_kw_21_pu.csv) qmult = (file=../../../../../profiles/res_kvar_21_pu.csv)

New Loadshape.res_kw_207_pu npts= 35040 interval=0.25 mult = (file=../../../../../profiles/res_kw_207_pu.csv) qmult = (file=../../../../../profiles/res_kvar_207_pu.csv)

New Loadshape.res_kw_98_pu npts= 35040 interval=0.25 mult = (file=../../../../../profiles/res_kw_98_pu.csv) qmult = (file=../../../../../profiles/res_kvar_98_pu.csv)

New Loadshape.res_kw_772_pu npts= 35040 interval=0.25 mult = (file=../../../../../profiles/res_kw_772_pu.csv) qmult = (file=../../../../../profiles/res_kvar_772_pu.csv)

New Loadshape.res_kw_1223_pu npts= 35040 interval=0.25 mult = (file=../../../../../profiles/res_kw_1223_pu.csv) qmult = (file=../../../../../profiles/res_kvar_1223_pu.csv)

New Loadshape.res_kw_278_pu npts= 35040 interval=0.25 mult = (file=../../../../../profiles/res_kw_278_pu.csv) qmult = (file=../../../../../profiles/res_kvar_278_pu.csv)

New Loadshape.res_kw_307_pu npts= 35040 interval=0.25 mult = (file=../../../../../profiles/res_kw_307_pu.csv) qmult = (file=../../../../../profiles/res_kvar_307_pu.csv)

New Loadshape.res_kw_271_pu npts= 35040 interval=0.25 mult = (file=../../../../../profiles/res_kw_271_pu.csv) qmult = (file=../../../../../profiles/res_kvar_271_pu.csv)

New Loadshape.res_kw_97_pu npts= 35040 interval=0.25 mult = (file=../../../../../profiles/res_kw_97_pu.csv) qmult = (file=../../../../../profiles/res_kvar_97_pu.csv)

New Loadshape.res_kw_1042_pu npts= 35040 interval=0.25 mult = (file=../../../../../profiles/res_kw_1042_pu.csv) qmult = (file=../../../../../profiles/res_kvar_1042_pu.csv)

New Loadshape.res_kw_317_pu npts= 35040 interval=0.25 mult = (file=../../../../../profiles/res_kw_317_pu.csv) qmult = (file=../../../../../profiles/res_kvar_317_pu.csv)

New Loadshape.res_kw_1099_pu npts= 35040 interval=0.25 mult = (file=../../../../../profiles/res_kw_1099_pu.csv) qmult = (file=../../../../../profiles/res_kvar_1099_pu.csv)

New Loadshape.res_kw_142_pu npts= 35040 interval=0.25 mult = (file=../../../../../profiles/res_kw_142_pu.csv) qmult = (file=../../../../../profiles/res_kvar_142_pu.csv)

New Loadshape.res_kw_514_pu npts= 35040 interval=0.25 mult = (file=../../../../../profiles/res_kw_514_pu.csv) qmult = (file=../../../../../profiles/res_kvar_514_pu.csv)

New Loadshape.res_kw_621_pu npts= 35040 interval=0.25 mult = (file=../../../../../profiles/res_kw_621_pu.csv) qmult = (file=../../../../../profiles/res_kvar_621_pu.csv)

New Loadshape.com_kw_15124_pu npts= 35040 interval=0.25 mult = (file=../../../../../profiles/com_kw_15124_pu.csv) qmult = (file=../../../../../profiles/com_kvar_15124_pu.csv)

New Loadshape.com_kw_14007_pu npts= 35040 interval=0.25 mult = (file=../../../../../profiles/com_kw_14007_pu.csv) qmult = (file=../../../../../profiles/com_kvar_14007_pu.csv)

New Loadshape.com_kw_14203_pu npts= 35040 interval=0.25 mult = (file=../../../../../profiles/com_kw_14203_pu.csv) qmult = (file=../../../../../profiles/com_kvar_14203_pu.csv)

New Loadshape.com_kw_14650_pu npts= 35040 interval=0.25 mult = (file=../../../../../profiles/com_kw_14650_pu.csv) qmult = (file=../../../../../profiles/com_kvar_14650_pu.csv)

New Loadshape.com_kw_13299_pu npts= 35040 interval=0.25 mult = (file=../../../../../profiles/com_kw_13299_pu.csv) qmult = (file=../../../../../profiles/com_kvar_13299_pu.csv)

New Loadshape.com_kw_14382_pu npts= 35040 interval=0.25 mult = (file=../../../../../profiles/com_kw_14382_pu.csv) qmult = (file=../../../../../profiles/com_kvar_14382_pu.csv)

New Loadshape.com_kw_12794_pu npts= 35040 interval=0.25 mult = (file=../../../../../profiles/com_kw_12794_pu.csv) qmult = (file=../../../../../profiles/com_kvar_12794_pu.csv)

New Loadshape.com_kw_13815_pu npts= 35040 interval=0.25 mult = (file=../../../../../profiles/com_kw_13815_pu.csv) qmult = (file=../../../../../profiles/com_kvar_13815_pu.csv)

New Loadshape.com_kw_13682_pu npts= 35040 interval=0.25 mult = (file=../../../../../profiles/com_kw_13682_pu.csv) qmult = (file=../../../../../profiles/com_kvar_13682_pu.csv)

New Loadshape.com_kw_12863_pu npts= 35040 interval=0.25 mult = (file=../../../../../profiles/com_kw_12863_pu.csv) qmult = (file=../../../../../profiles/com_kvar_12863_pu.csv)

New Loadshape.com_kw_14942_pu npts= 35040 interval=0.25 mult = (file=../../../../../profiles/com_kw_14942_pu.csv) qmult = (file=../../../../../profiles/com_kvar_14942_pu.csv)

New Loadshape.com_kw_14828_pu npts= 35040 interval=0.25 mult = (file=../../../../../profiles/com_kw_14828_pu.csv) qmult = (file=../../../../../profiles/com_kvar_14828_pu.csv)

New Loadshape.com_kw_13891_pu npts= 35040 interval=0.25 mult = (file=../../../../../profiles/com_kw_13891_pu.csv) qmult = (file=../../../../../profiles/com_kvar_13891_pu.csv)

New Loadshape.com_kw_14204_pu npts= 35040 interval=0.25 mult = (file=../../../../../profiles/com_kw_14204_pu.csv) qmult = (file=../../../../../profiles/com_kvar_14204_pu.csv)

New Loadshape.com_kw_13107_pu npts= 35040 interval=0.25 mult = (file=../../../../../profiles/com_kw_13107_pu.csv) qmult = (file=../../../../../profiles/com_kvar_13107_pu.csv)

New Loadshape.com_kw_12843_pu npts= 35040 interval=0.25 mult = (file=../../../../../profiles/com_kw_12843_pu.csv) qmult = (file=../../../../../profiles/com_kvar_12843_pu.csv)

New Loadshape.com_kw_15271_pu npts= 35040 interval=0.25 mult = (file=../../../../../profiles/com_kw_15271_pu.csv) qmult = (file=../../../../../profiles/com_kvar_15271_pu.csv)

New Loadshape.com_kw_15174_pu npts= 35040 interval=0.25 mult = (file=../../../../../profiles/com_kw_15174_pu.csv) qmult = (file=../../../../../profiles/com_kvar_15174_pu.csv)

New Loadshape.com_kw_13858_pu npts= 35040 interval=0.25 mult = (file=../../../../../profiles/com_kw_13858_pu.csv) qmult = (file=../../../../../profiles/com_kvar_13858_pu.csv)

New Loadshape.com_kw_14552_pu npts= 35040 interval=0.25 mult = (file=../../../../../profiles/com_kw_14552_pu.csv) qmult = (file=../../../../../profiles/com_kvar_14552_pu.csv)

New Loadshape.com_kw_15171_pu npts= 35040 interval=0.25 mult = (file=../../../../../profiles/com_kw_15171_pu.csv) qmult = (file=../../../../../profiles/com_kvar_15171_pu.csv)

New Loadshape.com_kw_15165_pu npts= 35040 interval=0.25 mult = (file=../../../../../profiles/com_kw_15165_pu.csv) qmult = (file=../../../../../profiles/com_kvar_15165_pu.csv)

New Loadshape.com_kw_14014_pu npts= 35040 interval=0.25 mult = (file=../../../../../profiles/com_kw_14014_pu.csv) qmult = (file=../../../../../profiles/com_kvar_14014_pu.csv)

New Loadshape.com_kw_14369_pu npts= 35040 interval=0.25 mult = (file=../../../../../profiles/com_kw_14369_pu.csv) qmult = (file=../../../../../profiles/com_kvar_14369_pu.csv)

New Loadshape.com_kw_14187_pu npts= 35040 interval=0.25 mult = (file=../../../../../profiles/com_kw_14187_pu.csv) qmult = (file=../../../../../profiles/com_kvar_14187_pu.csv)

New Loadshape.com_kw_13164_pu npts= 35040 interval=0.25 mult = (file=../../../../../profiles/com_kw_13164_pu.csv) qmult = (file=../../../../../profiles/com_kvar_13164_pu.csv)

New Loadshape.com_kw_14106_pu npts= 35040 interval=0.25 mult = (file=../../../../../profiles/com_kw_14106_pu.csv) qmult = (file=../../../../../profiles/com_kvar_14106_pu.csv)

New Loadshape.com_kw_14800_pu npts= 35040 interval=0.25 mult = (file=../../../../../profiles/com_kw_14800_pu.csv) qmult = (file=../../../../../profiles/com_kvar_14800_pu.csv)

New Loadshape.com_kw_14364_pu npts= 35040 interval=0.25 mult = (file=../../../../../profiles/com_kw_14364_pu.csv) qmult = (file=../../../../../profiles/com_kvar_14364_pu.csv)

New Loadshape.com_kw_13427_pu npts= 35040 interval=0.25 mult = (file=../../../../../profiles/com_kw_13427_pu.csv) qmult = (file=../../../../../profiles/com_kvar_13427_pu.csv)

New Loadshape.com_kw_14801_pu npts= 35040 interval=0.25 mult = (file=../../../../../profiles/com_kw_14801_pu.csv) qmult = (file=../../../../../profiles/com_kvar_14801_pu.csv)

New Loadshape.com_kw_14206_pu npts= 35040 interval=0.25 mult = (file=../../../../../profiles/com_kw_14206_pu.csv) qmult = (file=../../../../../profiles/com_kvar_14206_pu.csv)

New Loadshape.com_kw_15057_pu npts= 35040 interval=0.25 mult = (file=../../../../../profiles/com_kw_15057_pu.csv) qmult = (file=../../../../../profiles/com_kvar_15057_pu.csv)

New Loadshape.com_kw_14472_pu npts= 35040 interval=0.25 mult = (file=../../../../../profiles/com_kw_14472_pu.csv) qmult = (file=../../../../../profiles/com_kvar_14472_pu.csv)

New Loadshape.com_kw_13410_pu npts= 35040 interval=0.25 mult = (file=../../../../../profiles/com_kw_13410_pu.csv) qmult = (file=../../../../../profiles/com_kvar_13410_pu.csv)

New Loadshape.com_kw_15153_pu npts= 35040 interval=0.25 mult = (file=../../../../../profiles/com_kw_15153_pu.csv) qmult = (file=../../../../../profiles/com_kvar_15153_pu.csv)

New Loadshape.com_kw_15189_pu npts= 35040 interval=0.25 mult = (file=../../../../../profiles/com_kw_15189_pu.csv) qmult = (file=../../../../../profiles/com_kvar_15189_pu.csv)

New Loadshape.com_kw_15060_pu npts= 35040 interval=0.25 mult = (file=../../../../../profiles/com_kw_15060_pu.csv) qmult = (file=../../../../../profiles/com_kvar_15060_pu.csv)

New Loadshape.com_kw_15253_pu npts= 35040 interval=0.25 mult = (file=../../../../../profiles/com_kw_15253_pu.csv) qmult = (file=../../../../../profiles/com_kvar_15253_pu.csv)

New Loadshape.com_kw_14693_pu npts= 35040 interval=0.25 mult = (file=../../../../../profiles/com_kw_14693_pu.csv) qmult = (file=../../../../../profiles/com_kvar_14693_pu.csv)

New Loadshape.com_kw_15118_pu npts= 35040 interval=0.25 mult = (file=../../../../../profiles/com_kw_15118_pu.csv) qmult = (file=../../../../../profiles/com_kvar_15118_pu.csv)

New Loadshape.com_kw_13018_pu npts= 35040 interval=0.25 mult = (file=../../../../../profiles/com_kw_13018_pu.csv) qmult = (file=../../../../../profiles/com_kvar_13018_pu.csv)

New Loadshape.com_kw_13114_pu npts= 35040 interval=0.25 mult = (file=../../../../../profiles/com_kw_13114_pu.csv) qmult = (file=../../../../../profiles/com_kvar_13114_pu.csv)

New Loadshape.com_kw_14620_pu npts= 35040 interval=0.25 mult = (file=../../../../../profiles/com_kw_14620_pu.csv) qmult = (file=../../../../../profiles/com_kvar_14620_pu.csv)

New Loadshape.com_kw_14802_pu npts= 35040 interval=0.25 mult = (file=../../../../../profiles/com_kw_14802_pu.csv) qmult = (file=../../../../../profiles/com_kvar_14802_pu.csv)

New Loadshape.com_kw_14221_pu npts= 35040 interval=0.25 mult = (file=../../../../../profiles/com_kw_14221_pu.csv) qmult = (file=../../../../../profiles/com_kvar_14221_pu.csv)

New Loadshape.com_kw_15066_pu npts= 35040 interval=0.25 mult = (file=../../../../../profiles/com_kw_15066_pu.csv) qmult = (file=../../../../../profiles/com_kvar_15066_pu.csv)

New Loadshape.com_kw_13395_pu npts= 35040 interval=0.25 mult = (file=../../../../../profiles/com_kw_13395_pu.csv) qmult = (file=../../../../../profiles/com_kvar_13395_pu.csv)

New Loadshape.com_kw_13759_pu npts= 35040 interval=0.25 mult = (file=../../../../../profiles/com_kw_13759_pu.csv) qmult = (file=../../../../../profiles/com_kvar_13759_pu.csv)

New Loadshape.com_kw_14950_pu npts= 35040 interval=0.25 mult = (file=../../../../../profiles/com_kw_14950_pu.csv) qmult = (file=../../../../../profiles/com_kvar_14950_pu.csv)

New Loadshape.com_kw_12815_pu npts= 35040 interval=0.25 mult = (file=../../../../../profiles/com_kw_12815_pu.csv) qmult = (file=../../../../../profiles/com_kvar_12815_pu.csv)
