New Load.load_p1ulv4378_1 conn=wye bus1=p1ulv4378.1 kV=0.12 Vminpu=0.8 Vmaxpu=1.2 model=1 kW=9.358521499301396 kvar=0.9436008203397507 Phases=1 yearly=com_kw_12824_pu

New Load.load_p1ulv4378_2 conn=wye bus1=p1ulv4378.2 kV=0.12 Vminpu=0.8 Vmaxpu=1.2 model=1 kW=9.358521499301396 kvar=0.9436008203397507 Phases=1 yearly=com_kw_12824_pu

New Load.load_p1ulv5237 conn=wye bus1=p1ulv5237.1.2.3 kV=0.48 Vminpu=0.8 Vmaxpu=1.2 model=1 kW=55.391584031535146 kvar=15.707402144103387 Phases=3 yearly=com_kw_15104_pu

New Load.load_p1ulv5238 conn=wye bus1=p1ulv5238.1.2.3 kV=0.48 Vminpu=0.8 Vmaxpu=1.2 model=1 kW=55.391584031535146 kvar=15.707402144103387 Phases=3 yearly=com_kw_15104_pu

New Load.load_p1ulv5239 conn=wye bus1=p1ulv5239.1.2.3 kV=0.48 Vminpu=0.8 Vmaxpu=1.2 model=1 kW=44.8919586983534 kvar=12.820254420156601 Phases=3 yearly=com_kw_13158_pu

New Load.load_p1ulv5240 conn=wye bus1=p1ulv5240.1.2.3 kV=0.48 Vminpu=0.8 Vmaxpu=1.2 model=1 kW=82.07638060650609 kvar=4.1271221195637455 Phases=3 yearly=com_kw_14522_pu

New Load.load_p1ulv5241 conn=wye bus1=p1ulv5241.1.2.3 kV=0.48 Vminpu=0.8 Vmaxpu=1.2 model=1 kW=105.64463678204906 kvar=4.6774095511854314 Phases=3 yearly=com_kw_13395_pu

New Load.load_p1ulv5724_1 conn=wye bus1=p1ulv5724.1 kV=0.12 Vminpu=0.8 Vmaxpu=1.2 model=1 kW=9.358521499301396 kvar=0.9436008203397507 Phases=1 yearly=com_kw_12824_pu

New Load.load_p1ulv5724_2 conn=wye bus1=p1ulv5724.2 kV=0.12 Vminpu=0.8 Vmaxpu=1.2 model=1 kW=9.358521499301396 kvar=0.9436008203397507 Phases=1 yearly=com_kw_12824_pu

New Load.load_p1ulv5725_1 conn=wye bus1=p1ulv5725.1 kV=0.12 Vminpu=0.8 Vmaxpu=1.2 model=1 kW=13.793674087523804 kvar=0.8506323916315093 Phases=1 yearly=com_kw_14989_pu

New Load.load_p1ulv5725_2 conn=wye bus1=p1ulv5725.2 kV=0.12 Vminpu=0.8 Vmaxpu=1.2 model=1 kW=13.793674087523804 kvar=0.8506323916315093 Phases=1 yearly=com_kw_14989_pu

New Load.load_p1ulv5726_1 conn=wye bus1=p1ulv5725.1 kV=0.12 Vminpu=0.8 Vmaxpu=1.2 model=1 kW=13.793674087523804 kvar=0.8506323916315093 Phases=1 yearly=com_kw_14989_pu

New Load.load_p1ulv5726_2 conn=wye bus1=p1ulv5725.2 kV=0.12 Vminpu=0.8 Vmaxpu=1.2 model=1 kW=13.793674087523804 kvar=0.8506323916315093 Phases=1 yearly=com_kw_14989_pu

New Load.load_p1ulv5727_1 conn=wye bus1=p1ulv5727.1 kV=0.12 Vminpu=0.8 Vmaxpu=1.2 model=1 kW=20.697093201112217 kvar=0.5393571015277391 Phases=1 yearly=com_kw_15092_pu

New Load.load_p1ulv5727_2 conn=wye bus1=p1ulv5727.2 kV=0.12 Vminpu=0.8 Vmaxpu=1.2 model=1 kW=20.697093201112217 kvar=0.5393571015277391 Phases=1 yearly=com_kw_15092_pu

New Load.load_p1ulv5728_1 conn=wye bus1=p1ulv5727.1 kV=0.12 Vminpu=0.8 Vmaxpu=1.2 model=1 kW=13.793674087523804 kvar=0.8506323916315093 Phases=1 yearly=com_kw_14989_pu

New Load.load_p1ulv5728_2 conn=wye bus1=p1ulv5727.2 kV=0.12 Vminpu=0.8 Vmaxpu=1.2 model=1 kW=13.793674087523804 kvar=0.8506323916315093 Phases=1 yearly=com_kw_14989_pu

New Load.load_p1ulv5729_1 conn=wye bus1=p1ulv5729.1 kV=0.12 Vminpu=0.8 Vmaxpu=1.2 model=1 kW=13.793674087523804 kvar=0.8506323916315093 Phases=1 yearly=com_kw_14989_pu

New Load.load_p1ulv5729_2 conn=wye bus1=p1ulv5729.2 kV=0.12 Vminpu=0.8 Vmaxpu=1.2 model=1 kW=13.793674087523804 kvar=0.8506323916315093 Phases=1 yearly=com_kw_14989_pu

New Load.load_p1ulv5730_1 conn=wye bus1=p1ulv5730.1 kV=0.12 Vminpu=0.8 Vmaxpu=1.2 model=1 kW=8.189330617096166 kvar=1.820071367344977 Phases=1 yearly=com_kw_12975_pu

New Load.load_p1ulv5730_2 conn=wye bus1=p1ulv5730.2 kV=0.12 Vminpu=0.8 Vmaxpu=1.2 model=1 kW=8.189330617096166 kvar=1.820071367344977 Phases=1 yearly=com_kw_12975_pu

New Load.load_p1ulv5731_1 conn=wye bus1=p1ulv5731.1 kV=0.12 Vminpu=0.8 Vmaxpu=1.2 model=1 kW=9.358521499301396 kvar=0.9436008203397507 Phases=1 yearly=com_kw_12824_pu

New Load.load_p1ulv5731_2 conn=wye bus1=p1ulv5731.2 kV=0.12 Vminpu=0.8 Vmaxpu=1.2 model=1 kW=9.358521499301396 kvar=0.9436008203397507 Phases=1 yearly=com_kw_12824_pu

New Load.load_p1ulv5732_1 conn=wye bus1=p1ulv5732.1 kV=0.12 Vminpu=0.8 Vmaxpu=1.2 model=1 kW=7.838257818376183 kvar=1.7746998372735319 Phases=1 yearly=com_kw_12884_pu

New Load.load_p1ulv5732_2 conn=wye bus1=p1ulv5732.2 kV=0.12 Vminpu=0.8 Vmaxpu=1.2 model=1 kW=7.838257818376183 kvar=1.7746998372735319 Phases=1 yearly=com_kw_12884_pu

New Load.load_p1ulv5733_1 conn=wye bus1=p1ulv5733.1 kV=0.12 Vminpu=0.8 Vmaxpu=1.2 model=1 kW=9.358521499301396 kvar=0.9436008203397507 Phases=1 yearly=com_kw_12824_pu

New Load.load_p1ulv5733_2 conn=wye bus1=p1ulv5733.2 kV=0.12 Vminpu=0.8 Vmaxpu=1.2 model=1 kW=9.358521499301396 kvar=0.9436008203397507 Phases=1 yearly=com_kw_12824_pu

New Load.load_p1ulv5734_1 conn=wye bus1=p1ulv5733.1 kV=0.12 Vminpu=0.8 Vmaxpu=1.2 model=1 kW=9.358521499301396 kvar=0.9436008203397507 Phases=1 yearly=com_kw_12824_pu

New Load.load_p1ulv5734_2 conn=wye bus1=p1ulv5733.2 kV=0.12 Vminpu=0.8 Vmaxpu=1.2 model=1 kW=9.358521499301396 kvar=0.9436008203397507 Phases=1 yearly=com_kw_12824_pu

New Load.load_p1ulv5735_1 conn=wye bus1=p1ulv5735.1 kV=0.12 Vminpu=0.8 Vmaxpu=1.2 model=1 kW=5.1496269559453545 kvar=1.5323145223091108 Phases=1 yearly=com_kw_14231_pu

New Load.load_p1ulv5735_2 conn=wye bus1=p1ulv5735.2 kV=0.12 Vminpu=0.8 Vmaxpu=1.2 model=1 kW=5.1496269559453545 kvar=1.5323145223091108 Phases=1 yearly=com_kw_14231_pu

New Load.load_p1ulv5736_1 conn=wye bus1=p1ulv5736.1 kV=0.12 Vminpu=0.8 Vmaxpu=1.2 model=1 kW=9.358521499301396 kvar=0.9436008203397507 Phases=1 yearly=com_kw_12824_pu

New Load.load_p1ulv5736_2 conn=wye bus1=p1ulv5736.2 kV=0.12 Vminpu=0.8 Vmaxpu=1.2 model=1 kW=9.358521499301396 kvar=0.9436008203397507 Phases=1 yearly=com_kw_12824_pu

New Load.load_p1ulv5737_1 conn=wye bus1=p1ulv5737.1 kV=0.12 Vminpu=0.8 Vmaxpu=1.2 model=1 kW=5.1496269559453545 kvar=1.5323145223091108 Phases=1 yearly=com_kw_14231_pu

New Load.load_p1ulv5737_2 conn=wye bus1=p1ulv5737.2 kV=0.12 Vminpu=0.8 Vmaxpu=1.2 model=1 kW=5.1496269559453545 kvar=1.5323145223091108 Phases=1 yearly=com_kw_14231_pu

New Load.load_p1ulv5738_1 conn=wye bus1=p1ulv5738.1 kV=0.12 Vminpu=0.8 Vmaxpu=1.2 model=1 kW=5.1496269559453545 kvar=1.5323145223091108 Phases=1 yearly=com_kw_14231_pu

New Load.load_p1ulv5738_2 conn=wye bus1=p1ulv5738.2 kV=0.12 Vminpu=0.8 Vmaxpu=1.2 model=1 kW=5.1496269559453545 kvar=1.5323145223091108 Phases=1 yearly=com_kw_14231_pu

New Load.load_p1ulv5739_1 conn=wye bus1=p1ulv5739.1 kV=0.12 Vminpu=0.8 Vmaxpu=1.2 model=1 kW=2.1376631749204993 kvar=0.6218033466021168 Phases=1 yearly=res_kw_93_pu

New Load.load_p1ulv5739_2 conn=wye bus1=p1ulv5739.2 kV=0.12 Vminpu=0.8 Vmaxpu=1.2 model=1 kW=2.1376631749204993 kvar=0.6218033466021168 Phases=1 yearly=res_kw_93_pu

New Load.load_p1ulv5740_1 conn=wye bus1=p1ulv5740.1 kV=0.12 Vminpu=0.8 Vmaxpu=1.2 model=1 kW=1.6746299650392789 kvar=0.594727774010976 Phases=1 yearly=res_kw_1276_pu

New Load.load_p1ulv5740_2 conn=wye bus1=p1ulv5740.2 kV=0.12 Vminpu=0.8 Vmaxpu=1.2 model=1 kW=1.6746299650392789 kvar=0.594727774010976 Phases=1 yearly=res_kw_1276_pu

New Load.load_p1ulv5741_1 conn=wye bus1=p1ulv5741.1 kV=0.12 Vminpu=0.8 Vmaxpu=1.2 model=1 kW=5.657185051194877 kvar=1.2069063012387689 Phases=1 yearly=res_kw_780_pu

New Load.load_p1ulv5741_2 conn=wye bus1=p1ulv5741.2 kV=0.12 Vminpu=0.8 Vmaxpu=1.2 model=1 kW=5.657185051194877 kvar=1.2069063012387689 Phases=1 yearly=res_kw_780_pu

New Load.load_p1ulv5806_1 conn=wye bus1=p1ulv5806.1 kV=0.12 Vminpu=0.8 Vmaxpu=1.2 model=1 kW=8.247397600936383 kvar=1.7600285215209255 Phases=1 yearly=com_kw_12857_pu

New Load.load_p1ulv5806_2 conn=wye bus1=p1ulv5806.2 kV=0.12 Vminpu=0.8 Vmaxpu=1.2 model=1 kW=8.247397600936383 kvar=1.7600285215209255 Phases=1 yearly=com_kw_12857_pu

New Load.load_p1ulv5807_1 conn=wye bus1=p1ulv5807.1 kV=0.12 Vminpu=0.8 Vmaxpu=1.2 model=1 kW=5.991566549041883 kvar=1.4552695367795996 Phases=1 yearly=res_kw_1283_pu

New Load.load_p1ulv5807_2 conn=wye bus1=p1ulv5807.2 kV=0.12 Vminpu=0.8 Vmaxpu=1.2 model=1 kW=5.991566549041883 kvar=1.4552695367795996 Phases=1 yearly=res_kw_1283_pu

New Load.load_p1ulv5808_1 conn=wye bus1=p1ulv5808.1 kV=0.12 Vminpu=0.8 Vmaxpu=1.2 model=1 kW=2.0903747651596376 kvar=0.7957076388263523 Phases=1 yearly=res_kw_1223_pu

New Load.load_p1ulv5808_2 conn=wye bus1=p1ulv5808.2 kV=0.12 Vminpu=0.8 Vmaxpu=1.2 model=1 kW=2.0903747651596376 kvar=0.7957076388263523 Phases=1 yearly=res_kw_1223_pu

New Load.load_p1ulv5809_1 conn=wye bus1=p1ulv5809.1 kV=0.12 Vminpu=0.8 Vmaxpu=1.2 model=1 kW=7.820072877358693 kvar=1.759853089528969 Phases=1 yearly=res_kw_97_pu

New Load.load_p1ulv5809_2 conn=wye bus1=p1ulv5809.2 kV=0.12 Vminpu=0.8 Vmaxpu=1.2 model=1 kW=7.820072877358693 kvar=1.759853089528969 Phases=1 yearly=res_kw_97_pu

New Load.load_p1ulv7629 conn=wye bus1=p1ulv7629.1.2.3 kV=0.48 Vminpu=0.8 Vmaxpu=1.2 model=1 kW=253.16222139998118 kvar=18.868683832325765 Phases=3 yearly=com_kw_13891_pu

New Load.load_p1ulv7630_1 conn=wye bus1=p1ulv7630.1 kV=0.12 Vminpu=0.8 Vmaxpu=1.2 model=1 kW=5.772584848285176 kvar=1.3225757839012733 Phases=1 yearly=res_kw_599_pu

New Load.load_p1ulv7630_2 conn=wye bus1=p1ulv7630.2 kV=0.12 Vminpu=0.8 Vmaxpu=1.2 model=1 kW=5.772584848285176 kvar=1.3225757839012733 Phases=1 yearly=res_kw_599_pu

New Load.load_p1ulv7631_1 conn=wye bus1=p1ulv7631.1 kV=0.12 Vminpu=0.8 Vmaxpu=1.2 model=1 kW=5.991566549041883 kvar=1.4552695367795996 Phases=1 yearly=res_kw_1283_pu

New Load.load_p1ulv7631_2 conn=wye bus1=p1ulv7631.2 kV=0.12 Vminpu=0.8 Vmaxpu=1.2 model=1 kW=5.991566549041883 kvar=1.4552695367795996 Phases=1 yearly=res_kw_1283_pu

New Load.load_p1ulv7632 conn=wye bus1=p1ulv7632.1.2.3 kV=0.48 Vminpu=0.8 Vmaxpu=1.2 model=1 kW=37.06615996289137 kvar=0.636271427608 Phases=3 yearly=com_kw_14478_pu

New Load.load_p1ulv7636_1 conn=wye bus1=p1ulv7636.1 kV=0.12 Vminpu=0.8 Vmaxpu=1.2 model=1 kW=6.847378896370207 kvar=0.2857422414791666 Phases=1 yearly=com_kw_14382_pu

New Load.load_p1ulv7636_2 conn=wye bus1=p1ulv7636.2 kV=0.12 Vminpu=0.8 Vmaxpu=1.2 model=1 kW=6.847378896370207 kvar=0.2857422414791666 Phases=1 yearly=com_kw_14382_pu

New Load.load_p1ulv7637 conn=wye bus1=p1ulv7637.1.2.3 kV=0.48 Vminpu=0.8 Vmaxpu=1.2 model=1 kW=51.99338843351495 kvar=2.319560551526166 Phases=3 yearly=com_kw_14574_pu

New Load.load_p1ulv7638 conn=wye bus1=p1ulv7638.1.2.3 kV=0.48 Vminpu=0.8 Vmaxpu=1.2 model=1 kW=35.575751352084666 kvar=8.679058106481836 Phases=3 yearly=com_kw_13354_pu

New Load.load_p1ulv7639 conn=wye bus1=p1ulv7639.1.2.3 kV=0.48 Vminpu=0.8 Vmaxpu=1.2 model=1 kW=29.06847666053555 kvar=5.848529560450256 Phases=3 yearly=com_kw_14619_pu

New Load.load_p1ulv7640 conn=wye bus1=p1ulv7640.1.2.3 kV=0.48 Vminpu=0.8 Vmaxpu=1.2 model=1 kW=33.6598462690562 kvar=7.837669926471887 Phases=3 yearly=com_kw_13719_pu

New Load.load_p1ulv7641 conn=wye bus1=p1ulv7641.1.2.3 kV=0.48 Vminpu=0.8 Vmaxpu=1.2 model=1 kW=22.152047737869896 kvar=6.510834234174965 Phases=3 yearly=com_kw_14325_pu

New Load.load_p1ulv7642 conn=wye bus1=p1ulv7642.1.2.3 kV=0.48 Vminpu=0.8 Vmaxpu=1.2 model=1 kW=76.12521636140032 kvar=29.30093864007087 Phases=3 yearly=com_kw_12866_pu

New Load.load_p1ulv7643 conn=wye bus1=p1ulv7643.1.2.3 kV=0.48 Vminpu=0.8 Vmaxpu=1.2 model=1 kW=25.30417501681602 kvar=7.179767776712684 Phases=3 yearly=com_kw_14809_pu

New Load.load_p1ulv7644 conn=wye bus1=p1ulv7644.1.2.3 kV=0.48 Vminpu=0.8 Vmaxpu=1.2 model=1 kW=25.30417501681602 kvar=7.179767776712684 Phases=3 yearly=com_kw_14809_pu

New Load.load_p1ulv7645 conn=wye bus1=p1ulv7645.1.2.3 kV=0.48 Vminpu=0.8 Vmaxpu=1.2 model=1 kW=70.95836030073916 kvar=2.5089240380191487 Phases=3 yearly=com_kw_14533_pu

New Load.load_p1ulv7646 conn=wye bus1=p1ulv7646.1.2.3 kV=0.48 Vminpu=0.8 Vmaxpu=1.2 model=1 kW=22.152047737869896 kvar=6.510834234174965 Phases=3 yearly=com_kw_14325_pu

New Load.load_p1ulv7647 conn=wye bus1=p1ulv7647.1.2.3 kV=0.48 Vminpu=0.8 Vmaxpu=1.2 model=1 kW=70.95836030073916 kvar=2.5089240380191487 Phases=3 yearly=com_kw_14533_pu

New Load.load_p1ulv7648_1 conn=wye bus1=p1ulv7648.1 kV=0.12 Vminpu=0.8 Vmaxpu=1.2 model=1 kW=4.081735511976485 kvar=0.9882394625849078 Phases=1 yearly=com_kw_14650_pu

New Load.load_p1ulv7648_2 conn=wye bus1=p1ulv7648.2 kV=0.12 Vminpu=0.8 Vmaxpu=1.2 model=1 kW=4.081735511976485 kvar=0.9882394625849078 Phases=1 yearly=com_kw_14650_pu

New Load.load_p1ulv7649_1 conn=wye bus1=p1ulv7649.1 kV=0.12 Vminpu=0.8 Vmaxpu=1.2 model=1 kW=6.251204132654125 kvar=1.5952530188558731 Phases=1 yearly=res_kw_1248_pu

New Load.load_p1ulv7649_2 conn=wye bus1=p1ulv7649.2 kV=0.12 Vminpu=0.8 Vmaxpu=1.2 model=1 kW=6.251204132654125 kvar=1.5952530188558731 Phases=1 yearly=res_kw_1248_pu

New Load.load_p1ulv7650_1 conn=wye bus1=p1ulv7650.1 kV=0.12 Vminpu=0.8 Vmaxpu=1.2 model=1 kW=2.6241521841182514 kvar=0.8429304779950015 Phases=1 yearly=res_kw_33_pu

New Load.load_p1ulv7650_2 conn=wye bus1=p1ulv7650.2 kV=0.12 Vminpu=0.8 Vmaxpu=1.2 model=1 kW=2.6241521841182514 kvar=0.8429304779950015 Phases=1 yearly=res_kw_33_pu

New Load.load_p1ulv7651_1 conn=wye bus1=p1ulv7651.1 kV=0.12 Vminpu=0.8 Vmaxpu=1.2 model=1 kW=8.447919937810639 kvar=4.074999759912348 Phases=1 yearly=res_kw_461_pu

New Load.load_p1ulv7651_2 conn=wye bus1=p1ulv7651.2 kV=0.12 Vminpu=0.8 Vmaxpu=1.2 model=1 kW=8.447919937810639 kvar=4.074999759912348 Phases=1 yearly=res_kw_461_pu

New Load.load_p1ulv7652 conn=wye bus1=p1ulv7652.1.2.3 kV=0.48 Vminpu=0.8 Vmaxpu=1.2 model=1 kW=51.6192845034793 kvar=4.35220778871396 Phases=3 yearly=com_kw_12841_pu

New Load.load_p1ulv7653_1 conn=wye bus1=p1ulv7653.1 kV=0.12 Vminpu=0.8 Vmaxpu=1.2 model=1 kW=6.727252203449795 kvar=1.9067277455995406 Phases=1 yearly=res_kw_822_pu

New Load.load_p1ulv7653_2 conn=wye bus1=p1ulv7653.2 kV=0.12 Vminpu=0.8 Vmaxpu=1.2 model=1 kW=6.727252203449795 kvar=1.9067277455995406 Phases=1 yearly=res_kw_822_pu

New Load.load_p1ulv7654_1 conn=wye bus1=p1ulv7654.1 kV=0.12 Vminpu=0.8 Vmaxpu=1.2 model=1 kW=5.2342602505249465 kvar=0.03192958905801793 Phases=1 yearly=com_kw_13109_pu

New Load.load_p1ulv7654_2 conn=wye bus1=p1ulv7654.2 kV=0.12 Vminpu=0.8 Vmaxpu=1.2 model=1 kW=5.2342602505249465 kvar=0.03192958905801793 Phases=1 yearly=com_kw_13109_pu

New Load.load_p1ulv7655_1 conn=wye bus1=p1ulv7655.1 kV=0.12 Vminpu=0.8 Vmaxpu=1.2 model=1 kW=4.737995147424034 kvar=0.27793880247771546 Phases=1 yearly=com_kw_14277_pu

New Load.load_p1ulv7655_2 conn=wye bus1=p1ulv7655.2 kV=0.12 Vminpu=0.8 Vmaxpu=1.2 model=1 kW=4.737995147424034 kvar=0.27793880247771546 Phases=1 yearly=com_kw_14277_pu

New Load.load_p1ulv7656_1 conn=wye bus1=p1ulv7656.1 kV=0.12 Vminpu=0.8 Vmaxpu=1.2 model=1 kW=10.375628907780863 kvar=4.616486224330442 Phases=1 yearly=res_kw_1267_pu

New Load.load_p1ulv7656_2 conn=wye bus1=p1ulv7656.2 kV=0.12 Vminpu=0.8 Vmaxpu=1.2 model=1 kW=10.375628907780863 kvar=4.616486224330442 Phases=1 yearly=res_kw_1267_pu

New Load.load_p1ulv7657_1 conn=wye bus1=p1ulv7657.1 kV=0.12 Vminpu=0.8 Vmaxpu=1.2 model=1 kW=1.8775078991445364 kvar=0.511706884096551 Phases=1 yearly=com_kw_14932_pu

New Load.load_p1ulv7657_2 conn=wye bus1=p1ulv7657.2 kV=0.12 Vminpu=0.8 Vmaxpu=1.2 model=1 kW=1.8775078991445364 kvar=0.511706884096551 Phases=1 yearly=com_kw_14932_pu

New Load.load_p1ulv7658_1 conn=wye bus1=p1ulv7658.1 kV=0.12 Vminpu=0.8 Vmaxpu=1.2 model=1 kW=2.5979078005670297 kvar=0.7783347543086586 Phases=1 yearly=com_kw_13164_pu

New Load.load_p1ulv7658_2 conn=wye bus1=p1ulv7658.2 kV=0.12 Vminpu=0.8 Vmaxpu=1.2 model=1 kW=2.5979078005670297 kvar=0.7783347543086586 Phases=1 yearly=com_kw_13164_pu

New Load.load_p1ulv7659_1 conn=wye bus1=p1ulv7659.1 kV=0.12 Vminpu=0.8 Vmaxpu=1.2 model=1 kW=4.615759315917863 kvar=1.2136246618425777 Phases=1 yearly=res_kw_1190_pu

New Load.load_p1ulv7659_2 conn=wye bus1=p1ulv7659.2 kV=0.12 Vminpu=0.8 Vmaxpu=1.2 model=1 kW=4.615759315917863 kvar=1.2136246618425777 Phases=1 yearly=res_kw_1190_pu

New Load.load_p1ulv7660_1 conn=wye bus1=p1ulv7660.1 kV=0.12 Vminpu=0.8 Vmaxpu=1.2 model=1 kW=2.4402285312138985 kvar=0.9342273883677934 Phases=1 yearly=res_kw_409_pu

New Load.load_p1ulv7660_2 conn=wye bus1=p1ulv7660.2 kV=0.12 Vminpu=0.8 Vmaxpu=1.2 model=1 kW=2.4402285312138985 kvar=0.9342273883677934 Phases=1 yearly=res_kw_409_pu

New Load.load_p1ulv7661_1 conn=wye bus1=p1ulv7661.1 kV=0.12 Vminpu=0.8 Vmaxpu=1.2 model=1 kW=3.6844020253442458 kvar=1.4451491397155931 Phases=1 yearly=res_kw_1258_pu

New Load.load_p1ulv7661_2 conn=wye bus1=p1ulv7661.2 kV=0.12 Vminpu=0.8 Vmaxpu=1.2 model=1 kW=3.6844020253442458 kvar=1.4451491397155931 Phases=1 yearly=res_kw_1258_pu

New Load.load_p1ulv7662 conn=wye bus1=p1ulv7662.1.2.3 kV=0.48 Vminpu=0.8 Vmaxpu=1.2 model=1 kW=27.31413429007533 kvar=2.0116721357119838 Phases=3 yearly=res_kw_123_pu

New Load.load_p1ulv7663_1 conn=wye bus1=p1ulv7663.1 kV=0.12 Vminpu=0.8 Vmaxpu=1.2 model=1 kW=6.727252203449795 kvar=1.9067277455995406 Phases=1 yearly=res_kw_822_pu

New Load.load_p1ulv7663_2 conn=wye bus1=p1ulv7663.2 kV=0.12 Vminpu=0.8 Vmaxpu=1.2 model=1 kW=6.727252203449795 kvar=1.9067277455995406 Phases=1 yearly=res_kw_822_pu

New Load.load_p1ulv7664_1 conn=wye bus1=p1ulv7664.1 kV=0.12 Vminpu=0.8 Vmaxpu=1.2 model=1 kW=3.6844020253442458 kvar=1.4451491397155931 Phases=1 yearly=res_kw_1258_pu

New Load.load_p1ulv7664_2 conn=wye bus1=p1ulv7664.2 kV=0.12 Vminpu=0.8 Vmaxpu=1.2 model=1 kW=3.6844020253442458 kvar=1.4451491397155931 Phases=1 yearly=res_kw_1258_pu

New Load.load_p1ulv7665_1 conn=wye bus1=p1ulv7665.1 kV=0.12 Vminpu=0.8 Vmaxpu=1.2 model=1 kW=7.259772519581312 kvar=1.3210086815250959 Phases=1 yearly=res_kw_128_pu

New Load.load_p1ulv7665_2 conn=wye bus1=p1ulv7665.2 kV=0.12 Vminpu=0.8 Vmaxpu=1.2 model=1 kW=7.259772519581312 kvar=1.3210086815250959 Phases=1 yearly=res_kw_128_pu

New Load.load_p1ulv7666_1 conn=wye bus1=p1ulv7666.1 kV=0.12 Vminpu=0.8 Vmaxpu=1.2 model=1 kW=8.04422437787292 kvar=1.3373848866311981 Phases=1 yearly=res_kw_695_pu

New Load.load_p1ulv7666_2 conn=wye bus1=p1ulv7666.2 kV=0.12 Vminpu=0.8 Vmaxpu=1.2 model=1 kW=8.04422437787292 kvar=1.3373848866311981 Phases=1 yearly=res_kw_695_pu

New Load.load_p1ulv7667_1 conn=wye bus1=p1ulv7667.1 kV=0.12 Vminpu=0.8 Vmaxpu=1.2 model=1 kW=4.8861141847383 kvar=1.2417687859549835 Phases=1 yearly=res_kw_549_pu

New Load.load_p1ulv7667_2 conn=wye bus1=p1ulv7667.2 kV=0.12 Vminpu=0.8 Vmaxpu=1.2 model=1 kW=4.8861141847383 kvar=1.2417687859549835 Phases=1 yearly=res_kw_549_pu

New Load.load_p1ulv7668_1 conn=wye bus1=p1ulv7668.1 kV=0.12 Vminpu=0.8 Vmaxpu=1.2 model=1 kW=3.8748715750127736 kvar=1.5614372175332516 Phases=1 yearly=res_kw_517_pu

New Load.load_p1ulv7668_2 conn=wye bus1=p1ulv7668.2 kV=0.12 Vminpu=0.8 Vmaxpu=1.2 model=1 kW=3.8748715750127736 kvar=1.5614372175332516 Phases=1 yearly=res_kw_517_pu

New Load.load_p1ulv7669_1 conn=wye bus1=p1ulv7669.1 kV=0.12 Vminpu=0.8 Vmaxpu=1.2 model=1 kW=11.457721527492426 kvar=1.3801854390555242 Phases=1 yearly=res_kw_861_pu

New Load.load_p1ulv7669_2 conn=wye bus1=p1ulv7669.2 kV=0.12 Vminpu=0.8 Vmaxpu=1.2 model=1 kW=11.457721527492426 kvar=1.3801854390555242 Phases=1 yearly=res_kw_861_pu

New Load.load_p1ulv7670_1 conn=wye bus1=p1ulv7670.1 kV=0.12 Vminpu=0.8 Vmaxpu=1.2 model=1 kW=7.259772519581312 kvar=1.3210086815250959 Phases=1 yearly=res_kw_128_pu

New Load.load_p1ulv7670_2 conn=wye bus1=p1ulv7670.2 kV=0.12 Vminpu=0.8 Vmaxpu=1.2 model=1 kW=7.259772519581312 kvar=1.3210086815250959 Phases=1 yearly=res_kw_128_pu

New Load.load_p1ulv7671_1 conn=wye bus1=p1ulv7671.1 kV=0.12 Vminpu=0.8 Vmaxpu=1.2 model=1 kW=2.916803644387601 kvar=0.11499518252231355 Phases=1 yearly=res_kw_1094_pu

New Load.load_p1ulv7671_2 conn=wye bus1=p1ulv7671.2 kV=0.12 Vminpu=0.8 Vmaxpu=1.2 model=1 kW=2.916803644387601 kvar=0.11499518252231355 Phases=1 yearly=res_kw_1094_pu

New Load.load_p1ulv7673_1 conn=wye bus1=p1ulv7673.1 kV=0.12 Vminpu=0.8 Vmaxpu=1.2 model=1 kW=5.436729579526792 kvar=1.2488470964899614 Phases=1 yearly=res_kw_454_pu

New Load.load_p1ulv7673_2 conn=wye bus1=p1ulv7673.2 kV=0.12 Vminpu=0.8 Vmaxpu=1.2 model=1 kW=5.436729579526792 kvar=1.2488470964899614 Phases=1 yearly=res_kw_454_pu

New Load.load_p1ulv7674_1 conn=wye bus1=p1ulv7674.1 kV=0.12 Vminpu=0.8 Vmaxpu=1.2 model=1 kW=7.7578735794910925 kvar=1.9049941012910125 Phases=1 yearly=res_kw_863_pu

New Load.load_p1ulv7674_2 conn=wye bus1=p1ulv7674.2 kV=0.12 Vminpu=0.8 Vmaxpu=1.2 model=1 kW=7.7578735794910925 kvar=1.9049941012910125 Phases=1 yearly=res_kw_863_pu

New Load.load_p1ulv7675_1 conn=wye bus1=p1ulv7675.1 kV=0.12 Vminpu=0.8 Vmaxpu=1.2 model=1 kW=5.991566549041883 kvar=1.4552695367795996 Phases=1 yearly=res_kw_1283_pu

New Load.load_p1ulv7675_2 conn=wye bus1=p1ulv7675.2 kV=0.12 Vminpu=0.8 Vmaxpu=1.2 model=1 kW=5.991566549041883 kvar=1.4552695367795996 Phases=1 yearly=res_kw_1283_pu

New Load.load_p1ulv7676_1 conn=wye bus1=p1ulv7676.1 kV=0.12 Vminpu=0.8 Vmaxpu=1.2 model=1 kW=8.002510293265328 kvar=1.3147667835887125 Phases=1 yearly=res_kw_932_pu

New Load.load_p1ulv7676_2 conn=wye bus1=p1ulv7676.2 kV=0.12 Vminpu=0.8 Vmaxpu=1.2 model=1 kW=8.002510293265328 kvar=1.3147667835887125 Phases=1 yearly=res_kw_932_pu

New Load.load_p1ulv7677 conn=wye bus1=p1ulv7677.1.2.3 kV=0.48 Vminpu=0.8 Vmaxpu=1.2 model=1 kW=43.73505631398508 kvar=5.0290236670440045 Phases=3 yearly=res_kw_598_pu

New Load.load_p1ulv7678 conn=wye bus1=p1ulv7678.1.2.3 kV=0.48 Vminpu=0.8 Vmaxpu=1.2 model=1 kW=43.73505631398508 kvar=5.0290236670440045 Phases=3 yearly=res_kw_598_pu

New Load.load_p1ulv7679 conn=wye bus1=p1ulv7679.1.2.3 kV=0.48 Vminpu=0.8 Vmaxpu=1.2 model=1 kW=43.73505631398508 kvar=5.0290236670440045 Phases=3 yearly=res_kw_598_pu

New Load.load_p1ulv7681 conn=wye bus1=p1ulv7681.1.2.3 kV=0.48 Vminpu=0.8 Vmaxpu=1.2 model=1 kW=31.56390894948716 kvar=5.59016195527881 Phases=3 yearly=res_kw_76_pu

New Load.load_p1ulv7682 conn=wye bus1=p1ulv7682.1.2.3 kV=0.48 Vminpu=0.8 Vmaxpu=1.2 model=1 kW=32.881117764377386 kvar=6.407849563171136 Phases=3 yearly=res_kw_239_pu

New Load.load_p1ulv7691 conn=wye bus1=p1ulv7691.1.2.3 kV=0.48 Vminpu=0.8 Vmaxpu=1.2 model=1 kW=36.4625269315931 kvar=11.519228571653503 Phases=3 yearly=com_kw_12847_pu

New Load.load_p1ulv7692 conn=wye bus1=p1ulv7692.1.2.3 kV=0.48 Vminpu=0.8 Vmaxpu=1.2 model=1 kW=80.57255435064089 kvar=10.312586667060312 Phases=3 yearly=com_kw_13581_pu

New Load.load_p1ulv7693 conn=wye bus1=p1ulv7693.1.2.3 kV=0.48 Vminpu=0.8 Vmaxpu=1.2 model=1 kW=91.75061169357225 kvar=17.489110405047008 Phases=3 yearly=com_kw_13557_pu

New Load.load_p1ulv7694 conn=wye bus1=p1ulv7694.1.2.3 kV=0.48 Vminpu=0.8 Vmaxpu=1.2 model=1 kW=219.81077273709485 kvar=72.71476409596409 Phases=3 yearly=com_kw_14204_pu

New Load.load_p1ulv9089 conn=wye bus1=p1ulv9089.1.2.3 kV=0.48 Vminpu=0.8 Vmaxpu=1.2 model=1 kW=41.34406438373324 kvar=13.395673265426202 Phases=3 yearly=com_kw_14511_pu

New Load.load_p1ulv9090 conn=wye bus1=p1ulv9090.1.2.3 kV=0.48 Vminpu=0.8 Vmaxpu=1.2 model=1 kW=336.8702593879319 kvar=39.13854128218883 Phases=3 yearly=com_kw_13031_pu

New Load.load_p1ulv9091 conn=wye bus1=p1ulv9091.1.2.3 kV=0.48 Vminpu=0.8 Vmaxpu=1.2 model=1 kW=25.30417501681602 kvar=7.179767776712684 Phases=3 yearly=com_kw_14809_pu

New Load.load_p1ulv9092 conn=wye bus1=p1ulv9092.1.2.3 kV=0.48 Vminpu=0.8 Vmaxpu=1.2 model=1 kW=82.07638060650609 kvar=4.1271221195637455 Phases=3 yearly=com_kw_14522_pu

New Load.load_p1ulv9093 conn=wye bus1=p1ulv9093.1.2.3 kV=0.48 Vminpu=0.8 Vmaxpu=1.2 model=1 kW=34.005617991376155 kvar=7.203748974895467 Phases=3 yearly=com_kw_15118_pu

New Load.load_p1ulv9511 conn=wye bus1=p1ulv9511.1.2.3 kV=0.48 Vminpu=0.8 Vmaxpu=1.2 model=1 kW=31.79729615636958 kvar=7.2191546828095525 Phases=3 yearly=com_kw_13513_pu

New Load.load_p1ulv9512 conn=wye bus1=p1ulv9512.1.2.3 kV=0.48 Vminpu=0.8 Vmaxpu=1.2 model=1 kW=44.29918903232506 kvar=11.286668375928098 Phases=3 yearly=com_kw_13114_pu

New Load.load_p1ulv9513 conn=wye bus1=p1ulv9513.1.2.3 kV=0.48 Vminpu=0.8 Vmaxpu=1.2 model=1 kW=92.66293769561658 kvar=3.648049120411385 Phases=3 yearly=com_kw_14567_pu

New Load.load_p1ulv9514_1 conn=wye bus1=p1ulv9514.1 kV=0.12 Vminpu=0.8 Vmaxpu=1.2 model=1 kW=7.838257818376183 kvar=1.7746998372735319 Phases=1 yearly=com_kw_12884_pu

New Load.load_p1ulv9514_2 conn=wye bus1=p1ulv9514.2 kV=0.12 Vminpu=0.8 Vmaxpu=1.2 model=1 kW=7.838257818376183 kvar=1.7746998372735319 Phases=1 yearly=com_kw_12884_pu

New Load.load_p1ulv12557 conn=wye bus1=p1ulv12557.1.2.3 kV=0.48 Vminpu=0.8 Vmaxpu=1.2 model=1 kW=27.647818177747794 kvar=11.278024261044482 Phases=3 yearly=com_kw_14039_pu

New Load.load_p1ulv12558 conn=wye bus1=p1ulv12558.1.2.3 kV=0.48 Vminpu=0.8 Vmaxpu=1.2 model=1 kW=44.8919586983534 kvar=12.820254420156601 Phases=3 yearly=com_kw_13158_pu

New Load.load_p1ulv12559 conn=wye bus1=p1ulv12559.1.2.3 kV=0.48 Vminpu=0.8 Vmaxpu=1.2 model=1 kW=34.005617991376155 kvar=7.203748974895467 Phases=3 yearly=com_kw_15118_pu

New Load.load_p1ulv12560_1 conn=wye bus1=p1ulv12560.1 kV=0.12 Vminpu=0.8 Vmaxpu=1.2 model=1 kW=5.870755498032858 kvar=1.3962158378260503 Phases=1 yearly=res_kw_455_pu

New Load.load_p1ulv12560_2 conn=wye bus1=p1ulv12560.2 kV=0.12 Vminpu=0.8 Vmaxpu=1.2 model=1 kW=5.870755498032858 kvar=1.3962158378260503 Phases=1 yearly=res_kw_455_pu

New Load.load_p1ulv12561_1 conn=wye bus1=p1ulv12560.1 kV=0.12 Vminpu=0.8 Vmaxpu=1.2 model=1 kW=2.623267981089487 kvar=1.212519304398851 Phases=1 yearly=res_kw_452_pu

New Load.load_p1ulv12561_2 conn=wye bus1=p1ulv12560.2 kV=0.12 Vminpu=0.8 Vmaxpu=1.2 model=1 kW=2.623267981089487 kvar=1.212519304398851 Phases=1 yearly=res_kw_452_pu

New Load.load_p1ulv12562_1 conn=wye bus1=p1ulv12562.1 kV=0.12 Vminpu=0.8 Vmaxpu=1.2 model=1 kW=2.47170658682663 kvar=0.5373197382437959 Phases=1 yearly=res_kw_39_pu

New Load.load_p1ulv12562_2 conn=wye bus1=p1ulv12562.2 kV=0.12 Vminpu=0.8 Vmaxpu=1.2 model=1 kW=2.47170658682663 kvar=0.5373197382437959 Phases=1 yearly=res_kw_39_pu

New Load.load_p1ulv12563_1 conn=wye bus1=p1ulv12563.1 kV=0.12 Vminpu=0.8 Vmaxpu=1.2 model=1 kW=2.6241521841182514 kvar=0.8429304779950015 Phases=1 yearly=res_kw_33_pu

New Load.load_p1ulv12563_2 conn=wye bus1=p1ulv12563.2 kV=0.12 Vminpu=0.8 Vmaxpu=1.2 model=1 kW=2.6241521841182514 kvar=0.8429304779950015 Phases=1 yearly=res_kw_33_pu

New Load.load_p1ulv12564_1 conn=wye bus1=p1ulv12564.1 kV=0.12 Vminpu=0.8 Vmaxpu=1.2 model=1 kW=1.7932717143582468 kvar=0.4137486634368157 Phases=1 yearly=res_kw_931_pu

New Load.load_p1ulv12564_2 conn=wye bus1=p1ulv12564.2 kV=0.12 Vminpu=0.8 Vmaxpu=1.2 model=1 kW=1.7932717143582468 kvar=0.4137486634368157 Phases=1 yearly=res_kw_931_pu

New Load.load_p1ulv12565_1 conn=wye bus1=p1ulv12565.1 kV=0.12 Vminpu=0.8 Vmaxpu=1.2 model=1 kW=7.195337616187572 kvar=1.3536865792954904 Phases=1 yearly=res_kw_462_pu

New Load.load_p1ulv12565_2 conn=wye bus1=p1ulv12565.2 kV=0.12 Vminpu=0.8 Vmaxpu=1.2 model=1 kW=7.195337616187572 kvar=1.3536865792954904 Phases=1 yearly=res_kw_462_pu

New Load.load_p1ulv12566_1 conn=wye bus1=p1ulv12566.1 kV=0.12 Vminpu=0.8 Vmaxpu=1.2 model=1 kW=1.8618983584330409 kvar=0.7337589993741062 Phases=1 yearly=res_kw_141_pu

New Load.load_p1ulv12566_2 conn=wye bus1=p1ulv12566.2 kV=0.12 Vminpu=0.8 Vmaxpu=1.2 model=1 kW=1.8618983584330409 kvar=0.7337589993741062 Phases=1 yearly=res_kw_141_pu

New Load.load_p1ulv12567_1 conn=wye bus1=p1ulv12567.1 kV=0.12 Vminpu=0.8 Vmaxpu=1.2 model=1 kW=2.605021030189827 kvar=1.0007509371876184 Phases=1 yearly=res_kw_24_pu

New Load.load_p1ulv12567_2 conn=wye bus1=p1ulv12567.2 kV=0.12 Vminpu=0.8 Vmaxpu=1.2 model=1 kW=2.605021030189827 kvar=1.0007509371876184 Phases=1 yearly=res_kw_24_pu

New Load.load_p1ulv12568_1 conn=wye bus1=p1ulv12568.1 kV=0.12 Vminpu=0.8 Vmaxpu=1.2 model=1 kW=2.1376631749204993 kvar=0.6218033466021168 Phases=1 yearly=res_kw_93_pu

New Load.load_p1ulv12568_2 conn=wye bus1=p1ulv12568.2 kV=0.12 Vminpu=0.8 Vmaxpu=1.2 model=1 kW=2.1376631749204993 kvar=0.6218033466021168 Phases=1 yearly=res_kw_93_pu

New Load.load_p1ulv12569_1 conn=wye bus1=p1ulv12569.1 kV=0.12 Vminpu=0.8 Vmaxpu=1.2 model=1 kW=2.1894046505184286 kvar=0.7281040757251952 Phases=1 yearly=res_kw_1042_pu

New Load.load_p1ulv12569_2 conn=wye bus1=p1ulv12569.2 kV=0.12 Vminpu=0.8 Vmaxpu=1.2 model=1 kW=2.1894046505184286 kvar=0.7281040757251952 Phases=1 yearly=res_kw_1042_pu

New Load.load_p1ulv12570_1 conn=wye bus1=p1ulv12570.1 kV=0.12 Vminpu=0.8 Vmaxpu=1.2 model=1 kW=1.6746299650392789 kvar=0.594727774010976 Phases=1 yearly=res_kw_1276_pu

New Load.load_p1ulv12570_2 conn=wye bus1=p1ulv12570.2 kV=0.12 Vminpu=0.8 Vmaxpu=1.2 model=1 kW=1.6746299650392789 kvar=0.594727774010976 Phases=1 yearly=res_kw_1276_pu

New Load.load_p1ulv12571_1 conn=wye bus1=p1ulv12571.1 kV=0.12 Vminpu=0.8 Vmaxpu=1.2 model=1 kW=2.1894046505184286 kvar=0.7281040757251952 Phases=1 yearly=res_kw_1042_pu

New Load.load_p1ulv12571_2 conn=wye bus1=p1ulv12571.2 kV=0.12 Vminpu=0.8 Vmaxpu=1.2 model=1 kW=2.1894046505184286 kvar=0.7281040757251952 Phases=1 yearly=res_kw_1042_pu

New Load.load_p1ulv12572_1 conn=wye bus1=p1ulv12572.1 kV=0.12 Vminpu=0.8 Vmaxpu=1.2 model=1 kW=7.151603169892386 kvar=1.493762478537685 Phases=1 yearly=res_kw_30_pu

New Load.load_p1ulv12572_2 conn=wye bus1=p1ulv12572.2 kV=0.12 Vminpu=0.8 Vmaxpu=1.2 model=1 kW=7.151603169892386 kvar=1.493762478537685 Phases=1 yearly=res_kw_30_pu

New Load.load_p1ulv12573_1 conn=wye bus1=p1ulv12573.1 kV=0.12 Vminpu=0.8 Vmaxpu=1.2 model=1 kW=1.8618983584330409 kvar=0.7337589993741062 Phases=1 yearly=res_kw_141_pu

New Load.load_p1ulv12573_2 conn=wye bus1=p1ulv12573.2 kV=0.12 Vminpu=0.8 Vmaxpu=1.2 model=1 kW=1.8618983584330409 kvar=0.7337589993741062 Phases=1 yearly=res_kw_141_pu

New Load.load_p1ulv12574_1 conn=wye bus1=p1ulv12574.1 kV=0.12 Vminpu=0.8 Vmaxpu=1.2 model=1 kW=1.6746299650392789 kvar=0.594727774010976 Phases=1 yearly=res_kw_1276_pu

New Load.load_p1ulv12574_2 conn=wye bus1=p1ulv12574.2 kV=0.12 Vminpu=0.8 Vmaxpu=1.2 model=1 kW=1.6746299650392789 kvar=0.594727774010976 Phases=1 yearly=res_kw_1276_pu

New Load.load_p1ulv12575_1 conn=wye bus1=p1ulv12575.1 kV=0.12 Vminpu=0.8 Vmaxpu=1.2 model=1 kW=6.46954486905048 kvar=1.5165440515935265 Phases=1 yearly=res_kw_1067_pu

New Load.load_p1ulv12575_2 conn=wye bus1=p1ulv12575.2 kV=0.12 Vminpu=0.8 Vmaxpu=1.2 model=1 kW=6.46954486905048 kvar=1.5165440515935265 Phases=1 yearly=res_kw_1067_pu
