New Load.load_p1ulv317_1 conn=wye bus1=p1ulv317.1 kV=0.12 Vminpu=0.8 Vmaxpu=1.2 model=1 kW=4.081735511976485 kvar=0.9882394625849078 Phases=1 yearly=com_kw_14650_pu

New Load.load_p1ulv317_2 conn=wye bus1=p1ulv317.2 kV=0.12 Vminpu=0.8 Vmaxpu=1.2 model=1 kW=4.081735511976485 kvar=0.9882394625849078 Phases=1 yearly=com_kw_14650_pu

New Load.load_p1ulv318_1 conn=wye bus1=p1ulv318.1 kV=0.12 Vminpu=0.8 Vmaxpu=1.2 model=1 kW=4.081735511976485 kvar=0.9882394625849078 Phases=1 yearly=com_kw_14650_pu

New Load.load_p1ulv318_2 conn=wye bus1=p1ulv318.2 kV=0.12 Vminpu=0.8 Vmaxpu=1.2 model=1 kW=4.081735511976485 kvar=0.9882394625849078 Phases=1 yearly=com_kw_14650_pu

New Load.load_p1ulv319_1 conn=wye bus1=p1ulv319.1 kV=0.12 Vminpu=0.8 Vmaxpu=1.2 model=1 kW=2.1271986187473146 kvar=0.5751959086648131 Phases=1 yearly=com_kw_14402_pu

New Load.load_p1ulv319_2 conn=wye bus1=p1ulv319.2 kV=0.12 Vminpu=0.8 Vmaxpu=1.2 model=1 kW=2.1271986187473146 kvar=0.5751959086648131 Phases=1 yearly=com_kw_14402_pu

New Load.load_p1ulv320_1 conn=wye bus1=p1ulv320.1 kV=0.12 Vminpu=0.8 Vmaxpu=1.2 model=1 kW=4.081735511976485 kvar=0.9882394625849078 Phases=1 yearly=com_kw_14650_pu

New Load.load_p1ulv320_2 conn=wye bus1=p1ulv320.2 kV=0.12 Vminpu=0.8 Vmaxpu=1.2 model=1 kW=4.081735511976485 kvar=0.9882394625849078 Phases=1 yearly=com_kw_14650_pu

New Load.load_p1ulv321_1 conn=wye bus1=p1ulv321.1 kV=0.12 Vminpu=0.8 Vmaxpu=1.2 model=1 kW=4.081735511976485 kvar=0.9882394625849078 Phases=1 yearly=com_kw_14650_pu

New Load.load_p1ulv321_2 conn=wye bus1=p1ulv321.2 kV=0.12 Vminpu=0.8 Vmaxpu=1.2 model=1 kW=4.081735511976485 kvar=0.9882394625849078 Phases=1 yearly=com_kw_14650_pu

New Load.load_p1ulv322_1 conn=wye bus1=p1ulv321.1 kV=0.12 Vminpu=0.8 Vmaxpu=1.2 model=1 kW=4.081735511976485 kvar=0.9882394625849078 Phases=1 yearly=com_kw_14650_pu

New Load.load_p1ulv322_2 conn=wye bus1=p1ulv321.2 kV=0.12 Vminpu=0.8 Vmaxpu=1.2 model=1 kW=4.081735511976485 kvar=0.9882394625849078 Phases=1 yearly=com_kw_14650_pu

New Load.load_p1ulv323_1 conn=wye bus1=p1ulv323.1 kV=0.12 Vminpu=0.8 Vmaxpu=1.2 model=1 kW=4.081735511976485 kvar=0.9882394625849078 Phases=1 yearly=com_kw_14650_pu

New Load.load_p1ulv323_2 conn=wye bus1=p1ulv323.2 kV=0.12 Vminpu=0.8 Vmaxpu=1.2 model=1 kW=4.081735511976485 kvar=0.9882394625849078 Phases=1 yearly=com_kw_14650_pu

New Load.load_p1ulv324_1 conn=wye bus1=p1ulv324.1 kV=0.12 Vminpu=0.8 Vmaxpu=1.2 model=1 kW=4.081735511976485 kvar=0.9882394625849078 Phases=1 yearly=com_kw_14650_pu

New Load.load_p1ulv324_2 conn=wye bus1=p1ulv324.2 kV=0.12 Vminpu=0.8 Vmaxpu=1.2 model=1 kW=4.081735511976485 kvar=0.9882394625849078 Phases=1 yearly=com_kw_14650_pu

New Load.load_p1ulv1504_1 conn=wye bus1=p1ulv1504.1 kV=0.12 Vminpu=0.8 Vmaxpu=1.2 model=1 kW=5.777968789114468 kvar=0.5425823089827511 Phases=1 yearly=com_kw_15253_pu

New Load.load_p1ulv1504_2 conn=wye bus1=p1ulv1504.2 kV=0.12 Vminpu=0.8 Vmaxpu=1.2 model=1 kW=5.777968789114468 kvar=0.5425823089827511 Phases=1 yearly=com_kw_15253_pu

New Load.load_p1ulv1505 conn=wye bus1=p1ulv1505.1.2.3 kV=0.48 Vminpu=0.8 Vmaxpu=1.2 model=1 kW=22.152047737869896 kvar=6.510834234174965 Phases=3 yearly=com_kw_14325_pu

New Load.load_p1ulv1506 conn=wye bus1=p1ulv1506.1.2.3 kV=0.48 Vminpu=0.8 Vmaxpu=1.2 model=1 kW=20.950752597351638 kvar=5.267661803724949 Phases=3 yearly=com_kw_14805_pu

New Load.load_p1ulv1507 conn=wye bus1=p1ulv1507.1.2.3 kV=0.48 Vminpu=0.8 Vmaxpu=1.2 model=1 kW=147.8346199377875 kvar=40.422425754008465 Phases=3 yearly=com_kw_14007_pu

New Load.load_p1ulv1508_1 conn=wye bus1=p1ulv1508.1 kV=0.12 Vminpu=0.8 Vmaxpu=1.2 model=1 kW=4.081735511976485 kvar=0.9882394625849078 Phases=1 yearly=com_kw_14650_pu

New Load.load_p1ulv1508_2 conn=wye bus1=p1ulv1508.2 kV=0.12 Vminpu=0.8 Vmaxpu=1.2 model=1 kW=4.081735511976485 kvar=0.9882394625849078 Phases=1 yearly=com_kw_14650_pu

New Load.load_p1ulv1509 conn=wye bus1=p1ulv1509.1.2.3 kV=0.48 Vminpu=0.8 Vmaxpu=1.2 model=1 kW=48.970802526640945 kvar=2.9259902546318823 Phases=3 yearly=com_kw_14477_pu

New Load.load_p1ulv1510 conn=wye bus1=p1ulv1510.1.2.3 kV=0.48 Vminpu=0.8 Vmaxpu=1.2 model=1 kW=35.47904655844456 kvar=3.1514193734455604 Phases=3 yearly=com_kw_13231_pu

New Load.load_p1ulv2819 conn=wye bus1=p1ulv2819.1.2.3 kV=0.48 Vminpu=0.8 Vmaxpu=1.2 model=1 kW=35.54281830981262 kvar=9.966226563696083 Phases=3 yearly=com_kw_14383_pu

New Load.load_p1ulv3357_1 conn=wye bus1=p1ulv3357.1 kV=0.12 Vminpu=0.8 Vmaxpu=1.2 model=1 kW=5.723135606665604 kvar=1.5038194991101048 Phases=1 yearly=res_kw_1228_pu

New Load.load_p1ulv3357_2 conn=wye bus1=p1ulv3357.2 kV=0.12 Vminpu=0.8 Vmaxpu=1.2 model=1 kW=5.723135606665604 kvar=1.5038194991101048 Phases=1 yearly=res_kw_1228_pu

New Load.load_p1ulv3358_1 conn=wye bus1=p1ulv3358.1 kV=0.12 Vminpu=0.8 Vmaxpu=1.2 model=1 kW=5.077964450618387 kvar=1.0236236527709202 Phases=1 yearly=res_kw_283_pu

New Load.load_p1ulv3358_2 conn=wye bus1=p1ulv3358.2 kV=0.12 Vminpu=0.8 Vmaxpu=1.2 model=1 kW=5.077964450618387 kvar=1.0236236527709202 Phases=1 yearly=res_kw_283_pu

New Load.load_p1ulv3359_1 conn=wye bus1=p1ulv3359.1 kV=0.12 Vminpu=0.8 Vmaxpu=1.2 model=1 kW=13.098094558867626 kvar=1.9465584989288183 Phases=1 yearly=res_kw_795_pu

New Load.load_p1ulv3359_2 conn=wye bus1=p1ulv3359.2 kV=0.12 Vminpu=0.8 Vmaxpu=1.2 model=1 kW=13.098094558867626 kvar=1.9465584989288183 Phases=1 yearly=res_kw_795_pu

New Load.load_p1ulv3360_1 conn=wye bus1=p1ulv3359.1 kV=0.12 Vminpu=0.8 Vmaxpu=1.2 model=1 kW=2.40000228705824 kvar=1.0173787262529668 Phases=1 yearly=res_kw_1205_pu

New Load.load_p1ulv3360_2 conn=wye bus1=p1ulv3359.2 kV=0.12 Vminpu=0.8 Vmaxpu=1.2 model=1 kW=2.40000228705824 kvar=1.0173787262529668 Phases=1 yearly=res_kw_1205_pu

New Load.load_p1ulv3362_1 conn=wye bus1=p1ulv3362.1 kV=0.12 Vminpu=0.8 Vmaxpu=1.2 model=1 kW=5.436729579526792 kvar=1.2488470964899614 Phases=1 yearly=res_kw_454_pu

New Load.load_p1ulv3362_2 conn=wye bus1=p1ulv3362.2 kV=0.12 Vminpu=0.8 Vmaxpu=1.2 model=1 kW=5.436729579526792 kvar=1.2488470964899614 Phases=1 yearly=res_kw_454_pu

New Load.load_p1ulv3366 conn=wye bus1=p1ulv3366.1.2.3 kV=0.48 Vminpu=0.8 Vmaxpu=1.2 model=1 kW=19.88736827480221 kvar=0.992844806223201 Phases=3 yearly=res_kw_426_pu

New Load.load_p1ulv3369 conn=wye bus1=p1ulv3369.1.2.3 kV=0.48 Vminpu=0.8 Vmaxpu=1.2 model=1 kW=102.83620489813865 kvar=36.81420938044198 Phases=3 yearly=com_kw_14822_pu

New Load.load_p1ulv3370 conn=wye bus1=p1ulv3370.1.2.3 kV=0.48 Vminpu=0.8 Vmaxpu=1.2 model=1 kW=44.63242253317529 kvar=10.097066849540786 Phases=3 yearly=com_kw_14665_pu

New Load.load_p1ulv3371 conn=wye bus1=p1ulv3371.1.2.3 kV=0.48 Vminpu=0.8 Vmaxpu=1.2 model=1 kW=102.83620489813865 kvar=36.81420938044198 Phases=3 yearly=com_kw_14822_pu

New Load.load_p1ulv3372_1 conn=wye bus1=p1ulv3372.1 kV=0.12 Vminpu=0.8 Vmaxpu=1.2 model=1 kW=2.40000228705824 kvar=1.0173787262529668 Phases=1 yearly=res_kw_1205_pu

New Load.load_p1ulv3372_2 conn=wye bus1=p1ulv3372.2 kV=0.12 Vminpu=0.8 Vmaxpu=1.2 model=1 kW=2.40000228705824 kvar=1.0173787262529668 Phases=1 yearly=res_kw_1205_pu

New Load.load_p1ulv3373_1 conn=wye bus1=p1ulv3373.1 kV=0.12 Vminpu=0.8 Vmaxpu=1.2 model=1 kW=4.725263221485363 kvar=1.0173757011563145 Phases=1 yearly=res_kw_752_pu

New Load.load_p1ulv3373_2 conn=wye bus1=p1ulv3373.2 kV=0.12 Vminpu=0.8 Vmaxpu=1.2 model=1 kW=4.725263221485363 kvar=1.0173757011563145 Phases=1 yearly=res_kw_752_pu

New Load.load_p1ulv3375_1 conn=wye bus1=p1ulv3375.1 kV=0.12 Vminpu=0.8 Vmaxpu=1.2 model=1 kW=3.6844020253442458 kvar=1.4451491397155931 Phases=1 yearly=res_kw_1258_pu

New Load.load_p1ulv3375_2 conn=wye bus1=p1ulv3375.2 kV=0.12 Vminpu=0.8 Vmaxpu=1.2 model=1 kW=3.6844020253442458 kvar=1.4451491397155931 Phases=1 yearly=res_kw_1258_pu

New Load.load_p1ulv3377_1 conn=wye bus1=p1ulv3377.1 kV=0.12 Vminpu=0.8 Vmaxpu=1.2 model=1 kW=3.308494316062581 kvar=0.7969773391329138 Phases=1 yearly=res_kw_626_pu

New Load.load_p1ulv3377_2 conn=wye bus1=p1ulv3377.2 kV=0.12 Vminpu=0.8 Vmaxpu=1.2 model=1 kW=3.308494316062581 kvar=0.7969773391329138 Phases=1 yearly=res_kw_626_pu

New Load.load_p1ulv3380_1 conn=wye bus1=p1ulv3380.1 kV=0.12 Vminpu=0.8 Vmaxpu=1.2 model=1 kW=4.78815623948431 kvar=1.2110296754961107 Phases=1 yearly=res_kw_842_pu

New Load.load_p1ulv3380_2 conn=wye bus1=p1ulv3380.2 kV=0.12 Vminpu=0.8 Vmaxpu=1.2 model=1 kW=4.78815623948431 kvar=1.2110296754961107 Phases=1 yearly=res_kw_842_pu

New Load.load_p1ulv3381_1 conn=wye bus1=p1ulv3381.1 kV=0.12 Vminpu=0.8 Vmaxpu=1.2 model=1 kW=4.658663502989286 kvar=1.3388389434895354 Phases=1 yearly=res_kw_182_pu

New Load.load_p1ulv3381_2 conn=wye bus1=p1ulv3381.2 kV=0.12 Vminpu=0.8 Vmaxpu=1.2 model=1 kW=4.658663502989286 kvar=1.3388389434895354 Phases=1 yearly=res_kw_182_pu

New Load.load_p1ulv3382_1 conn=wye bus1=p1ulv3382.1 kV=0.12 Vminpu=0.8 Vmaxpu=1.2 model=1 kW=3.469755020859998 kvar=0.8941520384931253 Phases=1 yearly=res_kw_4_pu

New Load.load_p1ulv3382_2 conn=wye bus1=p1ulv3382.2 kV=0.12 Vminpu=0.8 Vmaxpu=1.2 model=1 kW=3.469755020859998 kvar=0.8941520384931253 Phases=1 yearly=res_kw_4_pu

New Load.load_p1ulv3383 conn=wye bus1=p1ulv3383.1.2.3 kV=0.48 Vminpu=0.8 Vmaxpu=1.2 model=1 kW=37.06615996289137 kvar=0.636271427608 Phases=3 yearly=com_kw_14478_pu

New Load.load_p1ulv3384_1 conn=wye bus1=p1ulv3384.1 kV=0.12 Vminpu=0.8 Vmaxpu=1.2 model=1 kW=5.723135606665604 kvar=1.5038194991101048 Phases=1 yearly=res_kw_1228_pu

New Load.load_p1ulv3384_2 conn=wye bus1=p1ulv3384.2 kV=0.12 Vminpu=0.8 Vmaxpu=1.2 model=1 kW=5.723135606665604 kvar=1.5038194991101048 Phases=1 yearly=res_kw_1228_pu

New Load.load_p1ulv3385_1 conn=wye bus1=p1ulv3385.1 kV=0.12 Vminpu=0.8 Vmaxpu=1.2 model=1 kW=3.8748715750127736 kvar=1.5614372175332516 Phases=1 yearly=res_kw_517_pu

New Load.load_p1ulv3385_2 conn=wye bus1=p1ulv3385.2 kV=0.12 Vminpu=0.8 Vmaxpu=1.2 model=1 kW=3.8748715750127736 kvar=1.5614372175332516 Phases=1 yearly=res_kw_517_pu

New Load.load_p1ulv3386_1 conn=wye bus1=p1ulv3386.1 kV=0.12 Vminpu=0.8 Vmaxpu=1.2 model=1 kW=4.954668718099946 kvar=0.7746804084830682 Phases=1 yearly=res_kw_635_pu

New Load.load_p1ulv3386_2 conn=wye bus1=p1ulv3386.2 kV=0.12 Vminpu=0.8 Vmaxpu=1.2 model=1 kW=4.954668718099946 kvar=0.7746804084830682 Phases=1 yearly=res_kw_635_pu

New Load.load_p1ulv3387_1 conn=wye bus1=p1ulv3387.1 kV=0.12 Vminpu=0.8 Vmaxpu=1.2 model=1 kW=8.189330617096166 kvar=1.820071367344977 Phases=1 yearly=com_kw_12975_pu

New Load.load_p1ulv3387_2 conn=wye bus1=p1ulv3387.2 kV=0.12 Vminpu=0.8 Vmaxpu=1.2 model=1 kW=8.189330617096166 kvar=1.820071367344977 Phases=1 yearly=com_kw_12975_pu

New Load.load_p1ulv3388_1 conn=wye bus1=p1ulv3388.1 kV=0.12 Vminpu=0.8 Vmaxpu=1.2 model=1 kW=6.484182191435283 kvar=0.5406267399205957 Phases=1 yearly=res_kw_160_pu

New Load.load_p1ulv3388_2 conn=wye bus1=p1ulv3388.2 kV=0.12 Vminpu=0.8 Vmaxpu=1.2 model=1 kW=6.484182191435283 kvar=0.5406267399205957 Phases=1 yearly=res_kw_160_pu

New Load.load_p1ulv3389_1 conn=wye bus1=p1ulv3389.1 kV=0.12 Vminpu=0.8 Vmaxpu=1.2 model=1 kW=6.501181071246712 kvar=1.043760248705264 Phases=1 yearly=res_kw_553_pu

New Load.load_p1ulv3389_2 conn=wye bus1=p1ulv3389.2 kV=0.12 Vminpu=0.8 Vmaxpu=1.2 model=1 kW=6.501181071246712 kvar=1.043760248705264 Phases=1 yearly=res_kw_553_pu

New Load.load_p1ulv3390_1 conn=wye bus1=p1ulv3390.1 kV=0.12 Vminpu=0.8 Vmaxpu=1.2 model=1 kW=10.375628907780863 kvar=4.616486224330442 Phases=1 yearly=res_kw_1267_pu

New Load.load_p1ulv3390_2 conn=wye bus1=p1ulv3390.2 kV=0.12 Vminpu=0.8 Vmaxpu=1.2 model=1 kW=10.375628907780863 kvar=4.616486224330442 Phases=1 yearly=res_kw_1267_pu

New Load.load_p1ulv3391_1 conn=wye bus1=p1ulv3391.1 kV=0.12 Vminpu=0.8 Vmaxpu=1.2 model=1 kW=10.375628907780863 kvar=4.616486224330442 Phases=1 yearly=res_kw_1267_pu

New Load.load_p1ulv3391_2 conn=wye bus1=p1ulv3391.2 kV=0.12 Vminpu=0.8 Vmaxpu=1.2 model=1 kW=10.375628907780863 kvar=4.616486224330442 Phases=1 yearly=res_kw_1267_pu

New Load.load_p1ulv3392_1 conn=wye bus1=p1ulv3392.1 kV=0.12 Vminpu=0.8 Vmaxpu=1.2 model=1 kW=11.457721527492426 kvar=1.3801854390555242 Phases=1 yearly=res_kw_861_pu

New Load.load_p1ulv3392_2 conn=wye bus1=p1ulv3392.2 kV=0.12 Vminpu=0.8 Vmaxpu=1.2 model=1 kW=11.457721527492426 kvar=1.3801854390555242 Phases=1 yearly=res_kw_861_pu

New Load.load_p1ulv3393_1 conn=wye bus1=p1ulv3393.1 kV=0.12 Vminpu=0.8 Vmaxpu=1.2 model=1 kW=5.436729579526792 kvar=1.2488470964899614 Phases=1 yearly=res_kw_454_pu

New Load.load_p1ulv3393_2 conn=wye bus1=p1ulv3393.2 kV=0.12 Vminpu=0.8 Vmaxpu=1.2 model=1 kW=5.436729579526792 kvar=1.2488470964899614 Phases=1 yearly=res_kw_454_pu

New Load.load_p1ulv3394_1 conn=wye bus1=p1ulv3394.1 kV=0.12 Vminpu=0.8 Vmaxpu=1.2 model=1 kW=2.916803644387601 kvar=0.11499518252231355 Phases=1 yearly=res_kw_1094_pu

New Load.load_p1ulv3394_2 conn=wye bus1=p1ulv3394.2 kV=0.12 Vminpu=0.8 Vmaxpu=1.2 model=1 kW=2.916803644387601 kvar=0.11499518252231355 Phases=1 yearly=res_kw_1094_pu

New Load.load_p1ulv3395_1 conn=wye bus1=p1ulv3395.1 kV=0.12 Vminpu=0.8 Vmaxpu=1.2 model=1 kW=5.675346369339635 kvar=1.238985226090579 Phases=1 yearly=res_kw_1186_pu

New Load.load_p1ulv3395_2 conn=wye bus1=p1ulv3395.2 kV=0.12 Vminpu=0.8 Vmaxpu=1.2 model=1 kW=5.675346369339635 kvar=1.238985226090579 Phases=1 yearly=res_kw_1186_pu

New Load.load_p1ulv3396_1 conn=wye bus1=p1ulv3396.1 kV=0.12 Vminpu=0.8 Vmaxpu=1.2 model=1 kW=6.326714615561071 kvar=1.6676010778457313 Phases=1 yearly=res_kw_7_pu

New Load.load_p1ulv3396_2 conn=wye bus1=p1ulv3396.2 kV=0.12 Vminpu=0.8 Vmaxpu=1.2 model=1 kW=6.326714615561071 kvar=1.6676010778457313 Phases=1 yearly=res_kw_7_pu

New Load.load_p1ulv3397_1 conn=wye bus1=p1ulv3397.1 kV=0.12 Vminpu=0.8 Vmaxpu=1.2 model=1 kW=2.6241521841182514 kvar=0.8429304779950015 Phases=1 yearly=res_kw_33_pu

New Load.load_p1ulv3397_2 conn=wye bus1=p1ulv3397.2 kV=0.12 Vminpu=0.8 Vmaxpu=1.2 model=1 kW=2.6241521841182514 kvar=0.8429304779950015 Phases=1 yearly=res_kw_33_pu

New Load.load_p1ulv3398_1 conn=wye bus1=p1ulv3398.1 kV=0.12 Vminpu=0.8 Vmaxpu=1.2 model=1 kW=6.224817813202313 kvar=1.7553010009693135 Phases=1 yearly=res_kw_710_pu

New Load.load_p1ulv3398_2 conn=wye bus1=p1ulv3398.2 kV=0.12 Vminpu=0.8 Vmaxpu=1.2 model=1 kW=6.224817813202313 kvar=1.7553010009693135 Phases=1 yearly=res_kw_710_pu

New Load.load_p1ulv3399_1 conn=wye bus1=p1ulv3399.1 kV=0.12 Vminpu=0.8 Vmaxpu=1.2 model=1 kW=5.436729579526792 kvar=1.2488470964899614 Phases=1 yearly=res_kw_454_pu

New Load.load_p1ulv3399_2 conn=wye bus1=p1ulv3399.2 kV=0.12 Vminpu=0.8 Vmaxpu=1.2 model=1 kW=5.436729579526792 kvar=1.2488470964899614 Phases=1 yearly=res_kw_454_pu

New Load.load_p1ulv3400_1 conn=wye bus1=p1ulv3395.1 kV=0.12 Vminpu=0.8 Vmaxpu=1.2 model=1 kW=2.40000228705824 kvar=1.0173787262529668 Phases=1 yearly=res_kw_1205_pu

New Load.load_p1ulv3400_2 conn=wye bus1=p1ulv3395.2 kV=0.12 Vminpu=0.8 Vmaxpu=1.2 model=1 kW=2.40000228705824 kvar=1.0173787262529668 Phases=1 yearly=res_kw_1205_pu

New Load.load_p1ulv3401_1 conn=wye bus1=p1ulv3401.1 kV=0.12 Vminpu=0.8 Vmaxpu=1.2 model=1 kW=8.188438755655785 kvar=1.0979918296007287 Phases=1 yearly=res_kw_450_pu

New Load.load_p1ulv3401_2 conn=wye bus1=p1ulv3401.2 kV=0.12 Vminpu=0.8 Vmaxpu=1.2 model=1 kW=8.188438755655785 kvar=1.0979918296007287 Phases=1 yearly=res_kw_450_pu

New Load.load_p1ulv3402_1 conn=wye bus1=p1ulv3402.1 kV=0.12 Vminpu=0.8 Vmaxpu=1.2 model=1 kW=3.8748715750127736 kvar=1.5614372175332516 Phases=1 yearly=res_kw_517_pu

New Load.load_p1ulv3402_2 conn=wye bus1=p1ulv3402.2 kV=0.12 Vminpu=0.8 Vmaxpu=1.2 model=1 kW=3.8748715750127736 kvar=1.5614372175332516 Phases=1 yearly=res_kw_517_pu

New Load.load_p1ulv3403_1 conn=wye bus1=p1ulv3403.1 kV=0.12 Vminpu=0.8 Vmaxpu=1.2 model=1 kW=6.702223593657906 kvar=1.4906391030592414 Phases=1 yearly=res_kw_199_pu

New Load.load_p1ulv3403_2 conn=wye bus1=p1ulv3403.2 kV=0.12 Vminpu=0.8 Vmaxpu=1.2 model=1 kW=6.702223593657906 kvar=1.4906391030592414 Phases=1 yearly=res_kw_199_pu

New Load.load_p1ulv3404_1 conn=wye bus1=p1ulv3404.1 kV=0.12 Vminpu=0.8 Vmaxpu=1.2 model=1 kW=4.78815623948431 kvar=1.2110296754961107 Phases=1 yearly=res_kw_842_pu

New Load.load_p1ulv3404_2 conn=wye bus1=p1ulv3404.2 kV=0.12 Vminpu=0.8 Vmaxpu=1.2 model=1 kW=4.78815623948431 kvar=1.2110296754961107 Phases=1 yearly=res_kw_842_pu

New Load.load_p1ulv3405_1 conn=wye bus1=p1ulv3405.1 kV=0.12 Vminpu=0.8 Vmaxpu=1.2 model=1 kW=3.469755020859998 kvar=0.8941520384931253 Phases=1 yearly=res_kw_4_pu

New Load.load_p1ulv3405_2 conn=wye bus1=p1ulv3405.2 kV=0.12 Vminpu=0.8 Vmaxpu=1.2 model=1 kW=3.469755020859998 kvar=0.8941520384931253 Phases=1 yearly=res_kw_4_pu

New Load.load_p1ulv3406_1 conn=wye bus1=p1ulv3406.1 kV=0.12 Vminpu=0.8 Vmaxpu=1.2 model=1 kW=5.436729579526792 kvar=1.2488470964899614 Phases=1 yearly=res_kw_454_pu

New Load.load_p1ulv3406_2 conn=wye bus1=p1ulv3406.2 kV=0.12 Vminpu=0.8 Vmaxpu=1.2 model=1 kW=5.436729579526792 kvar=1.2488470964899614 Phases=1 yearly=res_kw_454_pu

New Load.load_p1ulv3407_1 conn=wye bus1=p1ulv3407.1 kV=0.12 Vminpu=0.8 Vmaxpu=1.2 model=1 kW=4.817618468644212 kvar=1.1350426223715635 Phases=1 yearly=res_kw_843_pu

New Load.load_p1ulv3407_2 conn=wye bus1=p1ulv3407.2 kV=0.12 Vminpu=0.8 Vmaxpu=1.2 model=1 kW=4.817618468644212 kvar=1.1350426223715635 Phases=1 yearly=res_kw_843_pu

New Load.load_p1ulv3408_1 conn=wye bus1=p1ulv3408.1 kV=0.12 Vminpu=0.8 Vmaxpu=1.2 model=1 kW=3.8029744718879392 kvar=1.1462670306842289 Phases=1 yearly=res_kw_263_pu

New Load.load_p1ulv3408_2 conn=wye bus1=p1ulv3408.2 kV=0.12 Vminpu=0.8 Vmaxpu=1.2 model=1 kW=3.8029744718879392 kvar=1.1462670306842289 Phases=1 yearly=res_kw_263_pu

New Load.load_p1ulv3409_1 conn=wye bus1=p1ulv3409.1 kV=0.12 Vminpu=0.8 Vmaxpu=1.2 model=1 kW=9.666699253995569 kvar=2.090221480167897 Phases=1 yearly=res_kw_46_pu

New Load.load_p1ulv3409_2 conn=wye bus1=p1ulv3409.2 kV=0.12 Vminpu=0.8 Vmaxpu=1.2 model=1 kW=9.666699253995569 kvar=2.090221480167897 Phases=1 yearly=res_kw_46_pu

New Load.load_p1ulv3410_1 conn=wye bus1=p1ulv3410.1 kV=0.12 Vminpu=0.8 Vmaxpu=1.2 model=1 kW=7.7038456108870115 kvar=2.2380550800559678 Phases=1 yearly=com_kw_13824_pu

New Load.load_p1ulv3410_2 conn=wye bus1=p1ulv3410.2 kV=0.12 Vminpu=0.8 Vmaxpu=1.2 model=1 kW=7.7038456108870115 kvar=2.2380550800559678 Phases=1 yearly=com_kw_13824_pu

New Load.load_p1ulv3411_1 conn=wye bus1=p1ulv3411.1 kV=0.12 Vminpu=0.8 Vmaxpu=1.2 model=1 kW=6.520159505202592 kvar=1.1378587223610979 Phases=1 yearly=res_kw_879_pu

New Load.load_p1ulv3411_2 conn=wye bus1=p1ulv3411.2 kV=0.12 Vminpu=0.8 Vmaxpu=1.2 model=1 kW=6.520159505202592 kvar=1.1378587223610979 Phases=1 yearly=res_kw_879_pu

New Load.load_p1ulv3412_1 conn=wye bus1=p1ulv3412.1 kV=0.12 Vminpu=0.8 Vmaxpu=1.2 model=1 kW=3.629714039262861 kvar=1.2034402112399032 Phases=1 yearly=res_kw_203_pu

New Load.load_p1ulv3412_2 conn=wye bus1=p1ulv3412.2 kV=0.12 Vminpu=0.8 Vmaxpu=1.2 model=1 kW=3.629714039262861 kvar=1.2034402112399032 Phases=1 yearly=res_kw_203_pu

New Load.load_p1ulv3413_1 conn=wye bus1=p1ulv3413.1 kV=0.12 Vminpu=0.8 Vmaxpu=1.2 model=1 kW=4.615759315917863 kvar=1.2136246618425777 Phases=1 yearly=res_kw_1190_pu

New Load.load_p1ulv3413_2 conn=wye bus1=p1ulv3413.2 kV=0.12 Vminpu=0.8 Vmaxpu=1.2 model=1 kW=4.615759315917863 kvar=1.2136246618425777 Phases=1 yearly=res_kw_1190_pu

New Load.load_p1ulv3414_1 conn=wye bus1=p1ulv3414.1 kV=0.12 Vminpu=0.8 Vmaxpu=1.2 model=1 kW=6.782523491229934 kvar=1.0594739670560112 Phases=1 yearly=res_kw_564_pu

New Load.load_p1ulv3414_2 conn=wye bus1=p1ulv3414.2 kV=0.12 Vminpu=0.8 Vmaxpu=1.2 model=1 kW=6.782523491229934 kvar=1.0594739670560112 Phases=1 yearly=res_kw_564_pu

New Load.load_p1ulv3415_1 conn=wye bus1=p1ulv3415.1 kV=0.12 Vminpu=0.8 Vmaxpu=1.2 model=1 kW=4.78815623948431 kvar=1.2110296754961107 Phases=1 yearly=res_kw_842_pu

New Load.load_p1ulv3415_2 conn=wye bus1=p1ulv3415.2 kV=0.12 Vminpu=0.8 Vmaxpu=1.2 model=1 kW=4.78815623948431 kvar=1.2110296754961107 Phases=1 yearly=res_kw_842_pu

New Load.load_p1ulv3416 conn=wye bus1=p1ulv3416.1.2.3 kV=0.48 Vminpu=0.8 Vmaxpu=1.2 model=1 kW=42.6068536109847 kvar=2.0646253978160343 Phases=3 yearly=com_kw_15057_pu

New Load.load_p1umv5 conn=wye bus1=p1umv5.1.2.3 kV=12.47 Vminpu=0.8 Vmaxpu=1.2 model=1 kW=2092.5461330421726 kvar=121.21031878072554 Phases=3 yearly=com_kw_15149_pu

New Load.load_p1ulv3417_1 conn=wye bus1=p1ulv3417.1 kV=0.12 Vminpu=0.8 Vmaxpu=1.2 model=1 kW=4.081735511976485 kvar=0.9882394625849078 Phases=1 yearly=com_kw_14650_pu

New Load.load_p1ulv3417_2 conn=wye bus1=p1ulv3417.2 kV=0.12 Vminpu=0.8 Vmaxpu=1.2 model=1 kW=4.081735511976485 kvar=0.9882394625849078 Phases=1 yearly=com_kw_14650_pu

New Load.load_p1ulv3418_1 conn=wye bus1=p1ulv3418.1 kV=0.12 Vminpu=0.8 Vmaxpu=1.2 model=1 kW=5.630366406134325 kvar=1.4654988363403099 Phases=1 yearly=res_kw_251_pu

New Load.load_p1ulv3418_2 conn=wye bus1=p1ulv3418.2 kV=0.12 Vminpu=0.8 Vmaxpu=1.2 model=1 kW=5.630366406134325 kvar=1.4654988363403099 Phases=1 yearly=res_kw_251_pu

New Load.load_p1ulv3419_1 conn=wye bus1=p1ulv3419.1 kV=0.12 Vminpu=0.8 Vmaxpu=1.2 model=1 kW=2.6241521841182514 kvar=0.8429304779950015 Phases=1 yearly=res_kw_33_pu

New Load.load_p1ulv3419_2 conn=wye bus1=p1ulv3419.2 kV=0.12 Vminpu=0.8 Vmaxpu=1.2 model=1 kW=2.6241521841182514 kvar=0.8429304779950015 Phases=1 yearly=res_kw_33_pu

New Load.load_p1ulv3420 conn=wye bus1=p1ulv3420.1.2.3 kV=0.48 Vminpu=0.8 Vmaxpu=1.2 model=1 kW=33.718828317133195 kvar=1.9897079093117043 Phases=3 yearly=res_kw_1052_pu

New Load.load_p1ulv3421_1 conn=wye bus1=p1ulv3421.1 kV=0.12 Vminpu=0.8 Vmaxpu=1.2 model=1 kW=2.40000228705824 kvar=1.0173787262529668 Phases=1 yearly=res_kw_1205_pu

New Load.load_p1ulv3421_2 conn=wye bus1=p1ulv3421.2 kV=0.12 Vminpu=0.8 Vmaxpu=1.2 model=1 kW=2.40000228705824 kvar=1.0173787262529668 Phases=1 yearly=res_kw_1205_pu

New Load.load_p1ulv3422 conn=wye bus1=p1ulv3422.1.2.3 kV=0.48 Vminpu=0.8 Vmaxpu=1.2 model=1 kW=48.561523049871006 kvar=4.708642227134872 Phases=3 yearly=com_kw_12935_pu

New Load.load_p1ulv3423 conn=wye bus1=p1ulv3423.1.2.3 kV=0.48 Vminpu=0.8 Vmaxpu=1.2 model=1 kW=20.3910576075888 kvar=5.163696871380699 Phases=3 yearly=com_kw_15153_pu

New Load.load_p1ulv3424 conn=wye bus1=p1ulv3424.1.2.3 kV=0.48 Vminpu=0.8 Vmaxpu=1.2 model=1 kW=147.8346199377875 kvar=40.422425754008465 Phases=3 yearly=com_kw_14007_pu

New Load.load_p1ulv3425_1 conn=wye bus1=p1ulv3425.1 kV=0.12 Vminpu=0.8 Vmaxpu=1.2 model=1 kW=11.007503143086616 kvar=0.8595166975418334 Phases=1 yearly=res_kw_1195_pu

New Load.load_p1ulv3425_2 conn=wye bus1=p1ulv3425.2 kV=0.12 Vminpu=0.8 Vmaxpu=1.2 model=1 kW=11.007503143086616 kvar=0.8595166975418334 Phases=1 yearly=res_kw_1195_pu

New Load.load_p1ulv3426_1 conn=wye bus1=p1ulv3426.1 kV=0.12 Vminpu=0.8 Vmaxpu=1.2 model=1 kW=6.520159505202592 kvar=1.1378587223610979 Phases=1 yearly=res_kw_879_pu

New Load.load_p1ulv3426_2 conn=wye bus1=p1ulv3426.2 kV=0.12 Vminpu=0.8 Vmaxpu=1.2 model=1 kW=6.520159505202592 kvar=1.1378587223610979 Phases=1 yearly=res_kw_879_pu

New Load.load_p1ulv3427_1 conn=wye bus1=p1ulv3427.1 kV=0.12 Vminpu=0.8 Vmaxpu=1.2 model=1 kW=4.792485504367488 kvar=0.7718250753089506 Phases=1 yearly=res_kw_85_pu

New Load.load_p1ulv3427_2 conn=wye bus1=p1ulv3427.2 kV=0.12 Vminpu=0.8 Vmaxpu=1.2 model=1 kW=4.792485504367488 kvar=0.7718250753089506 Phases=1 yearly=res_kw_85_pu

New Load.load_p1ulv3428 conn=wye bus1=p1ulv3428.1.2.3 kV=0.48 Vminpu=0.8 Vmaxpu=1.2 model=1 kW=40.942981916270845 kvar=12.738632234961589 Phases=3 yearly=com_kw_14701_pu

New Load.load_p1ulv3429_1 conn=wye bus1=p1ulv3429.1 kV=0.12 Vminpu=0.8 Vmaxpu=1.2 model=1 kW=5.1496269559453545 kvar=1.5323145223091108 Phases=1 yearly=com_kw_14231_pu

New Load.load_p1ulv3429_2 conn=wye bus1=p1ulv3429.2 kV=0.12 Vminpu=0.8 Vmaxpu=1.2 model=1 kW=5.1496269559453545 kvar=1.5323145223091108 Phases=1 yearly=com_kw_14231_pu

New Load.load_p1ulv3430 conn=wye bus1=p1ulv3430.1.2.3 kV=0.48 Vminpu=0.8 Vmaxpu=1.2 model=1 kW=76.73839172629569 kvar=23.116995331852024 Phases=3 yearly=com_kw_12863_pu

New Load.load_p1ulv3431 conn=wye bus1=p1ulv3431.1.2.3 kV=0.48 Vminpu=0.8 Vmaxpu=1.2 model=1 kW=176.2521493520351 kvar=51.442648979957085 Phases=3 yearly=com_kw_14983_pu

New Load.load_p1ulv3432_1 conn=wye bus1=p1ulv3432.1 kV=0.12 Vminpu=0.8 Vmaxpu=1.2 model=1 kW=1.8914832317680952 kvar=0.4701288429802831 Phases=1 yearly=com_kw_13018_pu

New Load.load_p1ulv3432_2 conn=wye bus1=p1ulv3432.2 kV=0.12 Vminpu=0.8 Vmaxpu=1.2 model=1 kW=1.8914832317680952 kvar=0.4701288429802831 Phases=1 yearly=com_kw_13018_pu

New Load.load_p1ulv3433 conn=wye bus1=p1ulv3433.1.2.3 kV=0.48 Vminpu=0.8 Vmaxpu=1.2 model=1 kW=63.61577499495425 kvar=15.911129160629322 Phases=3 yearly=com_kw_14971_pu

New Load.load_p1ulv4781_1 conn=wye bus1=p1ulv4781.1 kV=0.12 Vminpu=0.8 Vmaxpu=1.2 model=1 kW=3.0502193323758338 kvar=0.7068547525403183 Phases=1 yearly=res_kw_407_pu

New Load.load_p1ulv4781_2 conn=wye bus1=p1ulv4781.2 kV=0.12 Vminpu=0.8 Vmaxpu=1.2 model=1 kW=3.0502193323758338 kvar=0.7068547525403183 Phases=1 yearly=res_kw_407_pu

New Load.load_p1ulv4782_1 conn=wye bus1=p1ulv4782.1 kV=0.12 Vminpu=0.8 Vmaxpu=1.2 model=1 kW=5.436729579526792 kvar=1.2488470964899614 Phases=1 yearly=res_kw_454_pu

New Load.load_p1ulv4782_2 conn=wye bus1=p1ulv4782.2 kV=0.12 Vminpu=0.8 Vmaxpu=1.2 model=1 kW=5.436729579526792 kvar=1.2488470964899614 Phases=1 yearly=res_kw_454_pu

New Load.load_p1ulv4784_1 conn=wye bus1=p1ulv4784.1 kV=0.12 Vminpu=0.8 Vmaxpu=1.2 model=1 kW=4.359410160991208 kvar=0.7703346328307125 Phases=1 yearly=res_kw_470_pu

New Load.load_p1ulv4784_2 conn=wye bus1=p1ulv4784.2 kV=0.12 Vminpu=0.8 Vmaxpu=1.2 model=1 kW=4.359410160991208 kvar=0.7703346328307125 Phases=1 yearly=res_kw_470_pu

New Load.load_p1ulv4785_1 conn=wye bus1=p1ulv4785.1 kV=0.12 Vminpu=0.8 Vmaxpu=1.2 model=1 kW=5.4313165050257775 kvar=1.3233518473888222 Phases=1 yearly=res_kw_355_pu

New Load.load_p1ulv4785_2 conn=wye bus1=p1ulv4785.2 kV=0.12 Vminpu=0.8 Vmaxpu=1.2 model=1 kW=5.4313165050257775 kvar=1.3233518473888222 Phases=1 yearly=res_kw_355_pu

New Load.load_p1ulv4786_1 conn=wye bus1=p1ulv4786.1 kV=0.12 Vminpu=0.8 Vmaxpu=1.2 model=1 kW=3.8748715750127736 kvar=1.5614372175332516 Phases=1 yearly=res_kw_517_pu

New Load.load_p1ulv4786_2 conn=wye bus1=p1ulv4786.2 kV=0.12 Vminpu=0.8 Vmaxpu=1.2 model=1 kW=3.8748715750127736 kvar=1.5614372175332516 Phases=1 yearly=res_kw_517_pu

New Load.load_p1ulv4787_1 conn=wye bus1=p1ulv4787.1 kV=0.12 Vminpu=0.8 Vmaxpu=1.2 model=1 kW=3.469521951913567 kvar=0.9490620687569232 Phases=1 yearly=res_kw_825_pu

New Load.load_p1ulv4787_2 conn=wye bus1=p1ulv4787.2 kV=0.12 Vminpu=0.8 Vmaxpu=1.2 model=1 kW=3.469521951913567 kvar=0.9490620687569232 Phases=1 yearly=res_kw_825_pu

New Load.load_p1ulv4788_1 conn=wye bus1=p1ulv4788.1 kV=0.12 Vminpu=0.8 Vmaxpu=1.2 model=1 kW=6.445266117772333 kvar=1.3938988987154013 Phases=1 yearly=res_kw_581_pu

New Load.load_p1ulv4788_2 conn=wye bus1=p1ulv4788.2 kV=0.12 Vminpu=0.8 Vmaxpu=1.2 model=1 kW=6.445266117772333 kvar=1.3938988987154013 Phases=1 yearly=res_kw_581_pu

New Load.load_p1ulv4789_1 conn=wye bus1=p1ulv4789.1 kV=0.12 Vminpu=0.8 Vmaxpu=1.2 model=1 kW=4.666080754031652 kvar=0.9704814918535188 Phases=1 yearly=res_kw_280_pu

New Load.load_p1ulv4789_2 conn=wye bus1=p1ulv4789.2 kV=0.12 Vminpu=0.8 Vmaxpu=1.2 model=1 kW=4.666080754031652 kvar=0.9704814918535188 Phases=1 yearly=res_kw_280_pu

New Load.load_p1ulv4791_1 conn=wye bus1=p1ulv4791.1 kV=0.12 Vminpu=0.8 Vmaxpu=1.2 model=1 kW=7.151603169892386 kvar=1.493762478537685 Phases=1 yearly=res_kw_30_pu

New Load.load_p1ulv4791_2 conn=wye bus1=p1ulv4791.2 kV=0.12 Vminpu=0.8 Vmaxpu=1.2 model=1 kW=7.151603169892386 kvar=1.493762478537685 Phases=1 yearly=res_kw_30_pu

New Load.load_p1ulv4792_1 conn=wye bus1=p1ulv4792.1 kV=0.12 Vminpu=0.8 Vmaxpu=1.2 model=1 kW=1.8636614682402992 kvar=0.5015179682387616 Phases=1 yearly=res_kw_532_pu

New Load.load_p1ulv4792_2 conn=wye bus1=p1ulv4792.2 kV=0.12 Vminpu=0.8 Vmaxpu=1.2 model=1 kW=1.8636614682402992 kvar=0.5015179682387616 Phases=1 yearly=res_kw_532_pu

New Load.load_p1ulv6110_1 conn=wye bus1=p1ulv6110.1 kV=0.12 Vminpu=0.8 Vmaxpu=1.2 model=1 kW=5.723135606665604 kvar=1.5038194991101048 Phases=1 yearly=res_kw_1228_pu

New Load.load_p1ulv6110_2 conn=wye bus1=p1ulv6110.2 kV=0.12 Vminpu=0.8 Vmaxpu=1.2 model=1 kW=5.723135606665604 kvar=1.5038194991101048 Phases=1 yearly=res_kw_1228_pu

New Load.load_p1ulv6111_1 conn=wye bus1=p1ulv6111.1 kV=0.12 Vminpu=0.8 Vmaxpu=1.2 model=1 kW=6.727252203449795 kvar=1.9067277455995406 Phases=1 yearly=res_kw_822_pu

New Load.load_p1ulv6111_2 conn=wye bus1=p1ulv6111.2 kV=0.12 Vminpu=0.8 Vmaxpu=1.2 model=1 kW=6.727252203449795 kvar=1.9067277455995406 Phases=1 yearly=res_kw_822_pu

New Load.load_p1ulv6116 conn=wye bus1=p1ulv6116.1.2.3 kV=0.48 Vminpu=0.8 Vmaxpu=1.2 model=1 kW=52.92904493300925 kvar=13.39480714795076 Phases=3 yearly=com_kw_13010_pu

New Load.load_p1ulv6119_1 conn=wye bus1=p1ulv6119.1 kV=0.12 Vminpu=0.8 Vmaxpu=1.2 model=1 kW=9.666699253995569 kvar=2.090221480167897 Phases=1 yearly=res_kw_46_pu

New Load.load_p1ulv6119_2 conn=wye bus1=p1ulv6119.2 kV=0.12 Vminpu=0.8 Vmaxpu=1.2 model=1 kW=9.666699253995569 kvar=2.090221480167897 Phases=1 yearly=res_kw_46_pu

New Load.load_p1ulv6121_1 conn=wye bus1=p1ulv6121.1 kV=0.12 Vminpu=0.8 Vmaxpu=1.2 model=1 kW=5.675346369339635 kvar=1.238985226090579 Phases=1 yearly=res_kw_1186_pu

New Load.load_p1ulv6121_2 conn=wye bus1=p1ulv6121.2 kV=0.12 Vminpu=0.8 Vmaxpu=1.2 model=1 kW=5.675346369339635 kvar=1.238985226090579 Phases=1 yearly=res_kw_1186_pu

New Load.load_p1ulv6122_1 conn=wye bus1=p1ulv6122.1 kV=0.12 Vminpu=0.8 Vmaxpu=1.2 model=1 kW=4.081735511976485 kvar=0.9882394625849078 Phases=1 yearly=com_kw_14650_pu

New Load.load_p1ulv6122_2 conn=wye bus1=p1ulv6122.2 kV=0.12 Vminpu=0.8 Vmaxpu=1.2 model=1 kW=4.081735511976485 kvar=0.9882394625849078 Phases=1 yearly=com_kw_14650_pu

New Load.load_p1ulv6123_1 conn=wye bus1=p1ulv6123.1 kV=0.12 Vminpu=0.8 Vmaxpu=1.2 model=1 kW=6.727252203449795 kvar=1.9067277455995406 Phases=1 yearly=res_kw_822_pu

New Load.load_p1ulv6123_2 conn=wye bus1=p1ulv6123.2 kV=0.12 Vminpu=0.8 Vmaxpu=1.2 model=1 kW=6.727252203449795 kvar=1.9067277455995406 Phases=1 yearly=res_kw_822_pu
