New Loadshape.GSO_36.0721_-79.9153_25_180 npts= 35040 interval=0.25 mult = (file=../../../../../profiles/GSO_36.0721_-79.9153_25_180.csv)

New Loadshape.GSO_36.0721_-79.9153_35_135 npts= 35040 interval=0.25 mult = (file=../../../../../profiles/GSO_36.0721_-79.9153_35_135.csv)

New Loadshape.GSO_36.0721_-79.9153_25_135 npts= 35040 interval=0.25 mult = (file=../../../../../profiles/GSO_36.0721_-79.9153_25_135.csv)

New Loadshape.GSO_36.0721_-79.9153_25_225 npts= 35040 interval=0.25 mult = (file=../../../../../profiles/GSO_36.0721_-79.9153_25_225.csv)

New Loadshape.GSO_36.0721_-79.9153_15_180 npts= 35040 interval=0.25 mult = (file=../../../../../profiles/GSO_36.0721_-79.9153_15_180.csv)

New Loadshape.GSO_36.0721_-79.9153_15_90 npts= 35040 interval=0.25 mult = (file=../../../../../profiles/GSO_36.0721_-79.9153_15_90.csv)

New Loadshape.GSO_36.0721_-79.9153_35_90 npts= 35040 interval=0.25 mult = (file=../../../../../profiles/GSO_36.0721_-79.9153_35_90.csv)

New Loadshape.GSO_36.0721_-79.9153_45_135 npts= 35040 interval=0.25 mult = (file=../../../../../profiles/GSO_36.0721_-79.9153_45_135.csv)

New Loadshape.GSO_36.0721_-79.9153_35_270 npts= 35040 interval=0.25 mult = (file=../../../../../profiles/GSO_36.0721_-79.9153_35_270.csv)

New Loadshape.GSO_36.0721_-79.9153_25_270 npts= 35040 interval=0.25 mult = (file=../../../../../profiles/GSO_36.0721_-79.9153_25_270.csv)

New Loadshape.GSO_36.0721_-79.9153_45_270 npts= 35040 interval=0.25 mult = (file=../../../../../profiles/GSO_36.0721_-79.9153_45_270.csv)

New Loadshape.GSO_36.0721_-79.9153_35_180 npts= 35040 interval=0.25 mult = (file=../../../../../profiles/GSO_36.0721_-79.9153_35_180.csv)

New Loadshape.GSO_36.0721_-79.9153_15_225 npts= 35040 interval=0.25 mult = (file=../../../../../profiles/GSO_36.0721_-79.9153_15_225.csv)

New Loadshape.GSO_36.0721_-79.9153_25_90 npts= 35040 interval=0.25 mult = (file=../../../../../profiles/GSO_36.0721_-79.9153_25_90.csv)

New Loadshape.GSO_36.0721_-79.9153_35_225 npts= 35040 interval=0.25 mult = (file=../../../../../profiles/GSO_36.0721_-79.9153_35_225.csv)

New Loadshape.GSO_36.0721_-79.9153_45_225 npts= 35040 interval=0.25 mult = (file=../../../../../profiles/GSO_36.0721_-79.9153_45_225.csv)

New Loadshape.GSO_36.0721_-79.9153_45_180 npts= 35040 interval=0.25 mult = (file=../../../../../profiles/GSO_36.0721_-79.9153_45_180.csv)

New Loadshape.GSO_36.0721_-79.9153_15_135 npts= 35040 interval=0.25 mult = (file=../../../../../profiles/GSO_36.0721_-79.9153_15_135.csv)

New Loadshape.GSO_36.0721_-79.9153_15_270 npts= 35040 interval=0.25 mult = (file=../../../../../profiles/GSO_36.0721_-79.9153_15_270.csv)

New Loadshape.GSO_36.0721_-79.9153_45_90 npts= 35040 interval=0.25 mult = (file=../../../../../profiles/GSO_36.0721_-79.9153_45_90.csv)

New Loadshape.res_kw_1228_pu npts= 35040 interval=0.25 mult = (file=../../../../../profiles/res_kw_1228_pu.csv) qmult = (file=../../../../../profiles/res_kvar_1228_pu.csv)

New Loadshape.res_kw_283_pu npts= 35040 interval=0.25 mult = (file=../../../../../profiles/res_kw_283_pu.csv) qmult = (file=../../../../../profiles/res_kvar_283_pu.csv)

New Loadshape.res_kw_795_pu npts= 35040 interval=0.25 mult = (file=../../../../../profiles/res_kw_795_pu.csv) qmult = (file=../../../../../profiles/res_kvar_795_pu.csv)

New Loadshape.res_kw_1205_pu npts= 35040 interval=0.25 mult = (file=../../../../../profiles/res_kw_1205_pu.csv) qmult = (file=../../../../../profiles/res_kvar_1205_pu.csv)

New Loadshape.res_kw_454_pu npts= 35040 interval=0.25 mult = (file=../../../../../profiles/res_kw_454_pu.csv) qmult = (file=../../../../../profiles/res_kvar_454_pu.csv)

New Loadshape.res_kw_426_pu npts= 35040 interval=0.25 mult = (file=../../../../../profiles/res_kw_426_pu.csv) qmult = (file=../../../../../profiles/res_kvar_426_pu.csv)

New Loadshape.res_kw_752_pu npts= 35040 interval=0.25 mult = (file=../../../../../profiles/res_kw_752_pu.csv) qmult = (file=../../../../../profiles/res_kvar_752_pu.csv)

New Loadshape.res_kw_1258_pu npts= 35040 interval=0.25 mult = (file=../../../../../profiles/res_kw_1258_pu.csv) qmult = (file=../../../../../profiles/res_kvar_1258_pu.csv)

New Loadshape.res_kw_626_pu npts= 35040 interval=0.25 mult = (file=../../../../../profiles/res_kw_626_pu.csv) qmult = (file=../../../../../profiles/res_kvar_626_pu.csv)

New Loadshape.res_kw_842_pu npts= 35040 interval=0.25 mult = (file=../../../../../profiles/res_kw_842_pu.csv) qmult = (file=../../../../../profiles/res_kvar_842_pu.csv)

New Loadshape.res_kw_182_pu npts= 35040 interval=0.25 mult = (file=../../../../../profiles/res_kw_182_pu.csv) qmult = (file=../../../../../profiles/res_kvar_182_pu.csv)

New Loadshape.res_kw_4_pu npts= 35040 interval=0.25 mult = (file=../../../../../profiles/res_kw_4_pu.csv) qmult = (file=../../../../../profiles/res_kvar_4_pu.csv)

New Loadshape.res_kw_517_pu npts= 35040 interval=0.25 mult = (file=../../../../../profiles/res_kw_517_pu.csv) qmult = (file=../../../../../profiles/res_kvar_517_pu.csv)

New Loadshape.res_kw_635_pu npts= 35040 interval=0.25 mult = (file=../../../../../profiles/res_kw_635_pu.csv) qmult = (file=../../../../../profiles/res_kvar_635_pu.csv)

New Loadshape.res_kw_160_pu npts= 35040 interval=0.25 mult = (file=../../../../../profiles/res_kw_160_pu.csv) qmult = (file=../../../../../profiles/res_kvar_160_pu.csv)

New Loadshape.res_kw_553_pu npts= 35040 interval=0.25 mult = (file=../../../../../profiles/res_kw_553_pu.csv) qmult = (file=../../../../../profiles/res_kvar_553_pu.csv)

New Loadshape.res_kw_1267_pu npts= 35040 interval=0.25 mult = (file=../../../../../profiles/res_kw_1267_pu.csv) qmult = (file=../../../../../profiles/res_kvar_1267_pu.csv)

New Loadshape.res_kw_861_pu npts= 35040 interval=0.25 mult = (file=../../../../../profiles/res_kw_861_pu.csv) qmult = (file=../../../../../profiles/res_kvar_861_pu.csv)

New Loadshape.res_kw_1094_pu npts= 35040 interval=0.25 mult = (file=../../../../../profiles/res_kw_1094_pu.csv) qmult = (file=../../../../../profiles/res_kvar_1094_pu.csv)

New Loadshape.res_kw_1186_pu npts= 35040 interval=0.25 mult = (file=../../../../../profiles/res_kw_1186_pu.csv) qmult = (file=../../../../../profiles/res_kvar_1186_pu.csv)

New Loadshape.res_kw_7_pu npts= 35040 interval=0.25 mult = (file=../../../../../profiles/res_kw_7_pu.csv) qmult = (file=../../../../../profiles/res_kvar_7_pu.csv)

New Loadshape.res_kw_33_pu npts= 35040 interval=0.25 mult = (file=../../../../../profiles/res_kw_33_pu.csv) qmult = (file=../../../../../profiles/res_kvar_33_pu.csv)

New Loadshape.res_kw_710_pu npts= 35040 interval=0.25 mult = (file=../../../../../profiles/res_kw_710_pu.csv) qmult = (file=../../../../../profiles/res_kvar_710_pu.csv)

New Loadshape.res_kw_450_pu npts= 35040 interval=0.25 mult = (file=../../../../../profiles/res_kw_450_pu.csv) qmult = (file=../../../../../profiles/res_kvar_450_pu.csv)

New Loadshape.res_kw_199_pu npts= 35040 interval=0.25 mult = (file=../../../../../profiles/res_kw_199_pu.csv) qmult = (file=../../../../../profiles/res_kvar_199_pu.csv)

New Loadshape.res_kw_843_pu npts= 35040 interval=0.25 mult = (file=../../../../../profiles/res_kw_843_pu.csv) qmult = (file=../../../../../profiles/res_kvar_843_pu.csv)

New Loadshape.res_kw_263_pu npts= 35040 interval=0.25 mult = (file=../../../../../profiles/res_kw_263_pu.csv) qmult = (file=../../../../../profiles/res_kvar_263_pu.csv)

New Loadshape.res_kw_46_pu npts= 35040 interval=0.25 mult = (file=../../../../../profiles/res_kw_46_pu.csv) qmult = (file=../../../../../profiles/res_kvar_46_pu.csv)

New Loadshape.res_kw_879_pu npts= 35040 interval=0.25 mult = (file=../../../../../profiles/res_kw_879_pu.csv) qmult = (file=../../../../../profiles/res_kvar_879_pu.csv)

New Loadshape.res_kw_203_pu npts= 35040 interval=0.25 mult = (file=../../../../../profiles/res_kw_203_pu.csv) qmult = (file=../../../../../profiles/res_kvar_203_pu.csv)

New Loadshape.res_kw_1190_pu npts= 35040 interval=0.25 mult = (file=../../../../../profiles/res_kw_1190_pu.csv) qmult = (file=../../../../../profiles/res_kvar_1190_pu.csv)

New Loadshape.res_kw_564_pu npts= 35040 interval=0.25 mult = (file=../../../../../profiles/res_kw_564_pu.csv) qmult = (file=../../../../../profiles/res_kvar_564_pu.csv)

New Loadshape.res_kw_251_pu npts= 35040 interval=0.25 mult = (file=../../../../../profiles/res_kw_251_pu.csv) qmult = (file=../../../../../profiles/res_kvar_251_pu.csv)

New Loadshape.res_kw_1052_pu npts= 35040 interval=0.25 mult = (file=../../../../../profiles/res_kw_1052_pu.csv) qmult = (file=../../../../../profiles/res_kvar_1052_pu.csv)

New Loadshape.res_kw_1195_pu npts= 35040 interval=0.25 mult = (file=../../../../../profiles/res_kw_1195_pu.csv) qmult = (file=../../../../../profiles/res_kvar_1195_pu.csv)

New Loadshape.res_kw_85_pu npts= 35040 interval=0.25 mult = (file=../../../../../profiles/res_kw_85_pu.csv) qmult = (file=../../../../../profiles/res_kvar_85_pu.csv)

New Loadshape.res_kw_407_pu npts= 35040 interval=0.25 mult = (file=../../../../../profiles/res_kw_407_pu.csv) qmult = (file=../../../../../profiles/res_kvar_407_pu.csv)

New Loadshape.res_kw_470_pu npts= 35040 interval=0.25 mult = (file=../../../../../profiles/res_kw_470_pu.csv) qmult = (file=../../../../../profiles/res_kvar_470_pu.csv)

New Loadshape.res_kw_355_pu npts= 35040 interval=0.25 mult = (file=../../../../../profiles/res_kw_355_pu.csv) qmult = (file=../../../../../profiles/res_kvar_355_pu.csv)

New Loadshape.res_kw_825_pu npts= 35040 interval=0.25 mult = (file=../../../../../profiles/res_kw_825_pu.csv) qmult = (file=../../../../../profiles/res_kvar_825_pu.csv)

New Loadshape.res_kw_581_pu npts= 35040 interval=0.25 mult = (file=../../../../../profiles/res_kw_581_pu.csv) qmult = (file=../../../../../profiles/res_kvar_581_pu.csv)

New Loadshape.res_kw_280_pu npts= 35040 interval=0.25 mult = (file=../../../../../profiles/res_kw_280_pu.csv) qmult = (file=../../../../../profiles/res_kvar_280_pu.csv)

New Loadshape.res_kw_30_pu npts= 35040 interval=0.25 mult = (file=../../../../../profiles/res_kw_30_pu.csv) qmult = (file=../../../../../profiles/res_kvar_30_pu.csv)

New Loadshape.res_kw_532_pu npts= 35040 interval=0.25 mult = (file=../../../../../profiles/res_kw_532_pu.csv) qmult = (file=../../../../../profiles/res_kvar_532_pu.csv)

New Loadshape.res_kw_822_pu npts= 35040 interval=0.25 mult = (file=../../../../../profiles/res_kw_822_pu.csv) qmult = (file=../../../../../profiles/res_kvar_822_pu.csv)

New Loadshape.res_kw_1248_pu npts= 35040 interval=0.25 mult = (file=../../../../../profiles/res_kw_1248_pu.csv) qmult = (file=../../../../../profiles/res_kvar_1248_pu.csv)

New Loadshape.res_kw_1036_pu npts= 35040 interval=0.25 mult = (file=../../../../../profiles/res_kw_1036_pu.csv) qmult = (file=../../../../../profiles/res_kvar_1036_pu.csv)

New Loadshape.res_kw_24_pu npts= 35040 interval=0.25 mult = (file=../../../../../profiles/res_kw_24_pu.csv) qmult = (file=../../../../../profiles/res_kvar_24_pu.csv)

New Loadshape.res_kw_1083_pu npts= 35040 interval=0.25 mult = (file=../../../../../profiles/res_kw_1083_pu.csv) qmult = (file=../../../../../profiles/res_kvar_1083_pu.csv)

New Loadshape.res_kw_21_pu npts= 35040 interval=0.25 mult = (file=../../../../../profiles/res_kw_21_pu.csv) qmult = (file=../../../../../profiles/res_kvar_21_pu.csv)

New Loadshape.res_kw_1148_pu npts= 35040 interval=0.25 mult = (file=../../../../../profiles/res_kw_1148_pu.csv) qmult = (file=../../../../../profiles/res_kvar_1148_pu.csv)

New Loadshape.res_kw_523_pu npts= 35040 interval=0.25 mult = (file=../../../../../profiles/res_kw_523_pu.csv) qmult = (file=../../../../../profiles/res_kvar_523_pu.csv)

New Loadshape.res_kw_76_pu npts= 35040 interval=0.25 mult = (file=../../../../../profiles/res_kw_76_pu.csv) qmult = (file=../../../../../profiles/res_kvar_76_pu.csv)

New Loadshape.res_kw_1084_pu npts= 35040 interval=0.25 mult = (file=../../../../../profiles/res_kw_1084_pu.csv) qmult = (file=../../../../../profiles/res_kvar_1084_pu.csv)

New Loadshape.res_kw_652_pu npts= 35040 interval=0.25 mult = (file=../../../../../profiles/res_kw_652_pu.csv) qmult = (file=../../../../../profiles/res_kvar_652_pu.csv)

New Loadshape.res_kw_505_pu npts= 35040 interval=0.25 mult = (file=../../../../../profiles/res_kw_505_pu.csv) qmult = (file=../../../../../profiles/res_kvar_505_pu.csv)

New Loadshape.res_kw_898_pu npts= 35040 interval=0.25 mult = (file=../../../../../profiles/res_kw_898_pu.csv) qmult = (file=../../../../../profiles/res_kvar_898_pu.csv)

New Loadshape.res_kw_236_pu npts= 35040 interval=0.25 mult = (file=../../../../../profiles/res_kw_236_pu.csv) qmult = (file=../../../../../profiles/res_kvar_236_pu.csv)

New Loadshape.res_kw_20_pu npts= 35040 interval=0.25 mult = (file=../../../../../profiles/res_kw_20_pu.csv) qmult = (file=../../../../../profiles/res_kvar_20_pu.csv)

New Loadshape.res_kw_457_pu npts= 35040 interval=0.25 mult = (file=../../../../../profiles/res_kw_457_pu.csv) qmult = (file=../../../../../profiles/res_kvar_457_pu.csv)

New Loadshape.res_kw_250_pu npts= 35040 interval=0.25 mult = (file=../../../../../profiles/res_kw_250_pu.csv) qmult = (file=../../../../../profiles/res_kvar_250_pu.csv)

New Loadshape.res_kw_380_pu npts= 35040 interval=0.25 mult = (file=../../../../../profiles/res_kw_380_pu.csv) qmult = (file=../../../../../profiles/res_kvar_380_pu.csv)

New Loadshape.res_kw_409_pu npts= 35040 interval=0.25 mult = (file=../../../../../profiles/res_kw_409_pu.csv) qmult = (file=../../../../../profiles/res_kvar_409_pu.csv)

New Loadshape.res_kw_141_pu npts= 35040 interval=0.25 mult = (file=../../../../../profiles/res_kw_141_pu.csv) qmult = (file=../../../../../profiles/res_kvar_141_pu.csv)

New Loadshape.res_kw_807_pu npts= 35040 interval=0.25 mult = (file=../../../../../profiles/res_kw_807_pu.csv) qmult = (file=../../../../../profiles/res_kvar_807_pu.csv)

New Loadshape.res_kw_75_pu npts= 35040 interval=0.25 mult = (file=../../../../../profiles/res_kw_75_pu.csv) qmult = (file=../../../../../profiles/res_kvar_75_pu.csv)

New Loadshape.res_kw_1256_pu npts= 35040 interval=0.25 mult = (file=../../../../../profiles/res_kw_1256_pu.csv) qmult = (file=../../../../../profiles/res_kvar_1256_pu.csv)

New Loadshape.res_kw_464_pu npts= 35040 interval=0.25 mult = (file=../../../../../profiles/res_kw_464_pu.csv) qmult = (file=../../../../../profiles/res_kvar_464_pu.csv)

New Loadshape.res_kw_206_pu npts= 35040 interval=0.25 mult = (file=../../../../../profiles/res_kw_206_pu.csv) qmult = (file=../../../../../profiles/res_kvar_206_pu.csv)

New Loadshape.res_kw_681_pu npts= 35040 interval=0.25 mult = (file=../../../../../profiles/res_kw_681_pu.csv) qmult = (file=../../../../../profiles/res_kvar_681_pu.csv)

New Loadshape.res_kw_421_pu npts= 35040 interval=0.25 mult = (file=../../../../../profiles/res_kw_421_pu.csv) qmult = (file=../../../../../profiles/res_kvar_421_pu.csv)

New Loadshape.res_kw_670_pu npts= 35040 interval=0.25 mult = (file=../../../../../profiles/res_kw_670_pu.csv) qmult = (file=../../../../../profiles/res_kvar_670_pu.csv)

New Loadshape.res_kw_1099_pu npts= 35040 interval=0.25 mult = (file=../../../../../profiles/res_kw_1099_pu.csv) qmult = (file=../../../../../profiles/res_kvar_1099_pu.csv)

New Loadshape.res_kw_169_pu npts= 35040 interval=0.25 mult = (file=../../../../../profiles/res_kw_169_pu.csv) qmult = (file=../../../../../profiles/res_kvar_169_pu.csv)

New Loadshape.res_kw_597_pu npts= 35040 interval=0.25 mult = (file=../../../../../profiles/res_kw_597_pu.csv) qmult = (file=../../../../../profiles/res_kvar_597_pu.csv)

New Loadshape.res_kw_123_pu npts= 35040 interval=0.25 mult = (file=../../../../../profiles/res_kw_123_pu.csv) qmult = (file=../../../../../profiles/res_kvar_123_pu.csv)

New Loadshape.res_kw_599_pu npts= 35040 interval=0.25 mult = (file=../../../../../profiles/res_kw_599_pu.csv) qmult = (file=../../../../../profiles/res_kvar_599_pu.csv)

New Loadshape.res_kw_1223_pu npts= 35040 interval=0.25 mult = (file=../../../../../profiles/res_kw_1223_pu.csv) qmult = (file=../../../../../profiles/res_kvar_1223_pu.csv)

New Loadshape.res_kw_1013_pu npts= 35040 interval=0.25 mult = (file=../../../../../profiles/res_kw_1013_pu.csv) qmult = (file=../../../../../profiles/res_kvar_1013_pu.csv)

New Loadshape.res_kw_162_pu npts= 35040 interval=0.25 mult = (file=../../../../../profiles/res_kw_162_pu.csv) qmult = (file=../../../../../profiles/res_kvar_162_pu.csv)

New Loadshape.res_kw_216_pu npts= 35040 interval=0.25 mult = (file=../../../../../profiles/res_kw_216_pu.csv) qmult = (file=../../../../../profiles/res_kvar_216_pu.csv)

New Loadshape.res_kw_703_pu npts= 35040 interval=0.25 mult = (file=../../../../../profiles/res_kw_703_pu.csv) qmult = (file=../../../../../profiles/res_kvar_703_pu.csv)

New Loadshape.res_kw_1037_pu npts= 35040 interval=0.25 mult = (file=../../../../../profiles/res_kw_1037_pu.csv) qmult = (file=../../../../../profiles/res_kvar_1037_pu.csv)

New Loadshape.res_kw_401_pu npts= 35040 interval=0.25 mult = (file=../../../../../profiles/res_kw_401_pu.csv) qmult = (file=../../../../../profiles/res_kvar_401_pu.csv)

New Loadshape.res_kw_897_pu npts= 35040 interval=0.25 mult = (file=../../../../../profiles/res_kw_897_pu.csv) qmult = (file=../../../../../profiles/res_kvar_897_pu.csv)

New Loadshape.res_kw_324_pu npts= 35040 interval=0.25 mult = (file=../../../../../profiles/res_kw_324_pu.csv) qmult = (file=../../../../../profiles/res_kvar_324_pu.csv)

New Loadshape.res_kw_863_pu npts= 35040 interval=0.25 mult = (file=../../../../../profiles/res_kw_863_pu.csv) qmult = (file=../../../../../profiles/res_kvar_863_pu.csv)

New Loadshape.res_kw_798_pu npts= 35040 interval=0.25 mult = (file=../../../../../profiles/res_kw_798_pu.csv) qmult = (file=../../../../../profiles/res_kvar_798_pu.csv)

New Loadshape.res_kw_754_pu npts= 35040 interval=0.25 mult = (file=../../../../../profiles/res_kw_754_pu.csv) qmult = (file=../../../../../profiles/res_kvar_754_pu.csv)

New Loadshape.res_kw_1149_pu npts= 35040 interval=0.25 mult = (file=../../../../../profiles/res_kw_1149_pu.csv) qmult = (file=../../../../../profiles/res_kvar_1149_pu.csv)

New Loadshape.res_kw_658_pu npts= 35040 interval=0.25 mult = (file=../../../../../profiles/res_kw_658_pu.csv) qmult = (file=../../../../../profiles/res_kvar_658_pu.csv)

New Loadshape.res_kw_207_pu npts= 35040 interval=0.25 mult = (file=../../../../../profiles/res_kw_207_pu.csv) qmult = (file=../../../../../profiles/res_kvar_207_pu.csv)

New Loadshape.res_kw_552_pu npts= 35040 interval=0.25 mult = (file=../../../../../profiles/res_kw_552_pu.csv) qmult = (file=../../../../../profiles/res_kvar_552_pu.csv)

New Loadshape.res_kw_267_pu npts= 35040 interval=0.25 mult = (file=../../../../../profiles/res_kw_267_pu.csv) qmult = (file=../../../../../profiles/res_kvar_267_pu.csv)

New Loadshape.res_kw_846_pu npts= 35040 interval=0.25 mult = (file=../../../../../profiles/res_kw_846_pu.csv) qmult = (file=../../../../../profiles/res_kvar_846_pu.csv)

New Loadshape.res_kw_439_pu npts= 35040 interval=0.25 mult = (file=../../../../../profiles/res_kw_439_pu.csv) qmult = (file=../../../../../profiles/res_kvar_439_pu.csv)

New Loadshape.res_kw_748_pu npts= 35040 interval=0.25 mult = (file=../../../../../profiles/res_kw_748_pu.csv) qmult = (file=../../../../../profiles/res_kvar_748_pu.csv)

New Loadshape.res_kw_431_pu npts= 35040 interval=0.25 mult = (file=../../../../../profiles/res_kw_431_pu.csv) qmult = (file=../../../../../profiles/res_kvar_431_pu.csv)

New Loadshape.res_kw_945_pu npts= 35040 interval=0.25 mult = (file=../../../../../profiles/res_kw_945_pu.csv) qmult = (file=../../../../../profiles/res_kvar_945_pu.csv)

New Loadshape.res_kw_853_pu npts= 35040 interval=0.25 mult = (file=../../../../../profiles/res_kw_853_pu.csv) qmult = (file=../../../../../profiles/res_kvar_853_pu.csv)

New Loadshape.res_kw_501_pu npts= 35040 interval=0.25 mult = (file=../../../../../profiles/res_kw_501_pu.csv) qmult = (file=../../../../../profiles/res_kvar_501_pu.csv)

New Loadshape.res_kw_1138_pu npts= 35040 interval=0.25 mult = (file=../../../../../profiles/res_kw_1138_pu.csv) qmult = (file=../../../../../profiles/res_kvar_1138_pu.csv)

New Loadshape.res_kw_307_pu npts= 35040 interval=0.25 mult = (file=../../../../../profiles/res_kw_307_pu.csv) qmult = (file=../../../../../profiles/res_kvar_307_pu.csv)

New Loadshape.res_kw_884_pu npts= 35040 interval=0.25 mult = (file=../../../../../profiles/res_kw_884_pu.csv) qmult = (file=../../../../../profiles/res_kvar_884_pu.csv)

New Loadshape.res_kw_931_pu npts= 35040 interval=0.25 mult = (file=../../../../../profiles/res_kw_931_pu.csv) qmult = (file=../../../../../profiles/res_kvar_931_pu.csv)

New Loadshape.res_kw_1157_pu npts= 35040 interval=0.25 mult = (file=../../../../../profiles/res_kw_1157_pu.csv) qmult = (file=../../../../../profiles/res_kvar_1157_pu.csv)

New Loadshape.res_kw_319_pu npts= 35040 interval=0.25 mult = (file=../../../../../profiles/res_kw_319_pu.csv) qmult = (file=../../../../../profiles/res_kvar_319_pu.csv)

New Loadshape.res_kw_93_pu npts= 35040 interval=0.25 mult = (file=../../../../../profiles/res_kw_93_pu.csv) qmult = (file=../../../../../profiles/res_kvar_93_pu.csv)

New Loadshape.com_kw_14650_pu npts= 35040 interval=0.25 mult = (file=../../../../../profiles/com_kw_14650_pu.csv) qmult = (file=../../../../../profiles/com_kvar_14650_pu.csv)

New Loadshape.com_kw_14402_pu npts= 35040 interval=0.25 mult = (file=../../../../../profiles/com_kw_14402_pu.csv) qmult = (file=../../../../../profiles/com_kvar_14402_pu.csv)

New Loadshape.com_kw_15253_pu npts= 35040 interval=0.25 mult = (file=../../../../../profiles/com_kw_15253_pu.csv) qmult = (file=../../../../../profiles/com_kvar_15253_pu.csv)

New Loadshape.com_kw_14325_pu npts= 35040 interval=0.25 mult = (file=../../../../../profiles/com_kw_14325_pu.csv) qmult = (file=../../../../../profiles/com_kvar_14325_pu.csv)

New Loadshape.com_kw_14805_pu npts= 35040 interval=0.25 mult = (file=../../../../../profiles/com_kw_14805_pu.csv) qmult = (file=../../../../../profiles/com_kvar_14805_pu.csv)

New Loadshape.com_kw_14007_pu npts= 35040 interval=0.25 mult = (file=../../../../../profiles/com_kw_14007_pu.csv) qmult = (file=../../../../../profiles/com_kvar_14007_pu.csv)

New Loadshape.com_kw_14477_pu npts= 35040 interval=0.25 mult = (file=../../../../../profiles/com_kw_14477_pu.csv) qmult = (file=../../../../../profiles/com_kvar_14477_pu.csv)

New Loadshape.com_kw_13231_pu npts= 35040 interval=0.25 mult = (file=../../../../../profiles/com_kw_13231_pu.csv) qmult = (file=../../../../../profiles/com_kvar_13231_pu.csv)

New Loadshape.com_kw_14383_pu npts= 35040 interval=0.25 mult = (file=../../../../../profiles/com_kw_14383_pu.csv) qmult = (file=../../../../../profiles/com_kvar_14383_pu.csv)

New Loadshape.com_kw_14822_pu npts= 35040 interval=0.25 mult = (file=../../../../../profiles/com_kw_14822_pu.csv) qmult = (file=../../../../../profiles/com_kvar_14822_pu.csv)

New Loadshape.com_kw_14665_pu npts= 35040 interval=0.25 mult = (file=../../../../../profiles/com_kw_14665_pu.csv) qmult = (file=../../../../../profiles/com_kvar_14665_pu.csv)

New Loadshape.com_kw_14478_pu npts= 35040 interval=0.25 mult = (file=../../../../../profiles/com_kw_14478_pu.csv) qmult = (file=../../../../../profiles/com_kvar_14478_pu.csv)

New Loadshape.com_kw_12975_pu npts= 35040 interval=0.25 mult = (file=../../../../../profiles/com_kw_12975_pu.csv) qmult = (file=../../../../../profiles/com_kvar_12975_pu.csv)

New Loadshape.com_kw_13824_pu npts= 35040 interval=0.25 mult = (file=../../../../../profiles/com_kw_13824_pu.csv) qmult = (file=../../../../../profiles/com_kvar_13824_pu.csv)

New Loadshape.com_kw_15057_pu npts= 35040 interval=0.25 mult = (file=../../../../../profiles/com_kw_15057_pu.csv) qmult = (file=../../../../../profiles/com_kvar_15057_pu.csv)

New Loadshape.com_kw_15149_pu npts= 35040 interval=0.25 mult = (file=../../../../../profiles/com_kw_15149_pu.csv) qmult = (file=../../../../../profiles/com_kvar_15149_pu.csv)

New Loadshape.com_kw_12935_pu npts= 35040 interval=0.25 mult = (file=../../../../../profiles/com_kw_12935_pu.csv) qmult = (file=../../../../../profiles/com_kvar_12935_pu.csv)

New Loadshape.com_kw_15153_pu npts= 35040 interval=0.25 mult = (file=../../../../../profiles/com_kw_15153_pu.csv) qmult = (file=../../../../../profiles/com_kvar_15153_pu.csv)

New Loadshape.com_kw_14701_pu npts= 35040 interval=0.25 mult = (file=../../../../../profiles/com_kw_14701_pu.csv) qmult = (file=../../../../../profiles/com_kvar_14701_pu.csv)

New Loadshape.com_kw_14231_pu npts= 35040 interval=0.25 mult = (file=../../../../../profiles/com_kw_14231_pu.csv) qmult = (file=../../../../../profiles/com_kvar_14231_pu.csv)

New Loadshape.com_kw_12863_pu npts= 35040 interval=0.25 mult = (file=../../../../../profiles/com_kw_12863_pu.csv) qmult = (file=../../../../../profiles/com_kvar_12863_pu.csv)

New Loadshape.com_kw_14983_pu npts= 35040 interval=0.25 mult = (file=../../../../../profiles/com_kw_14983_pu.csv) qmult = (file=../../../../../profiles/com_kvar_14983_pu.csv)

New Loadshape.com_kw_13018_pu npts= 35040 interval=0.25 mult = (file=../../../../../profiles/com_kw_13018_pu.csv) qmult = (file=../../../../../profiles/com_kvar_13018_pu.csv)

New Loadshape.com_kw_14971_pu npts= 35040 interval=0.25 mult = (file=../../../../../profiles/com_kw_14971_pu.csv) qmult = (file=../../../../../profiles/com_kvar_14971_pu.csv)

New Loadshape.com_kw_13010_pu npts= 35040 interval=0.25 mult = (file=../../../../../profiles/com_kw_13010_pu.csv) qmult = (file=../../../../../profiles/com_kvar_13010_pu.csv)

New Loadshape.com_kw_15221_pu npts= 35040 interval=0.25 mult = (file=../../../../../profiles/com_kw_15221_pu.csv) qmult = (file=../../../../../profiles/com_kvar_15221_pu.csv)

New Loadshape.com_kw_14037_pu npts= 35040 interval=0.25 mult = (file=../../../../../profiles/com_kw_14037_pu.csv) qmult = (file=../../../../../profiles/com_kvar_14037_pu.csv)

New Loadshape.com_kw_13495_pu npts= 35040 interval=0.25 mult = (file=../../../../../profiles/com_kw_13495_pu.csv) qmult = (file=../../../../../profiles/com_kvar_13495_pu.csv)

New Loadshape.com_kw_15000_pu npts= 35040 interval=0.25 mult = (file=../../../../../profiles/com_kw_15000_pu.csv) qmult = (file=../../../../../profiles/com_kvar_15000_pu.csv)

New Loadshape.com_kw_13759_pu npts= 35040 interval=0.25 mult = (file=../../../../../profiles/com_kw_13759_pu.csv) qmult = (file=../../../../../profiles/com_kvar_13759_pu.csv)

New Loadshape.com_kw_13526_pu npts= 35040 interval=0.25 mult = (file=../../../../../profiles/com_kw_13526_pu.csv) qmult = (file=../../../../../profiles/com_kvar_13526_pu.csv)

New Loadshape.com_kw_14206_pu npts= 35040 interval=0.25 mult = (file=../../../../../profiles/com_kw_14206_pu.csv) qmult = (file=../../../../../profiles/com_kvar_14206_pu.csv)

New Loadshape.com_kw_13477_pu npts= 35040 interval=0.25 mult = (file=../../../../../profiles/com_kw_13477_pu.csv) qmult = (file=../../../../../profiles/com_kvar_13477_pu.csv)

New Loadshape.com_kw_14842_pu npts= 35040 interval=0.25 mult = (file=../../../../../profiles/com_kw_14842_pu.csv) qmult = (file=../../../../../profiles/com_kvar_14842_pu.csv)

New Loadshape.com_kw_14732_pu npts= 35040 interval=0.25 mult = (file=../../../../../profiles/com_kw_14732_pu.csv) qmult = (file=../../../../../profiles/com_kvar_14732_pu.csv)

New Loadshape.com_kw_14567_pu npts= 35040 interval=0.25 mult = (file=../../../../../profiles/com_kw_14567_pu.csv) qmult = (file=../../../../../profiles/com_kvar_14567_pu.csv)

New Loadshape.com_kw_14942_pu npts= 35040 interval=0.25 mult = (file=../../../../../profiles/com_kw_14942_pu.csv) qmult = (file=../../../../../profiles/com_kvar_14942_pu.csv)

New Loadshape.com_kw_12824_pu npts= 35040 interval=0.25 mult = (file=../../../../../profiles/com_kw_12824_pu.csv) qmult = (file=../../../../../profiles/com_kvar_12824_pu.csv)

New Loadshape.com_kw_14382_pu npts= 35040 interval=0.25 mult = (file=../../../../../profiles/com_kw_14382_pu.csv) qmult = (file=../../../../../profiles/com_kvar_14382_pu.csv)

New Loadshape.com_kw_13418_pu npts= 35040 interval=0.25 mult = (file=../../../../../profiles/com_kw_13418_pu.csv) qmult = (file=../../../../../profiles/com_kvar_13418_pu.csv)

New Loadshape.com_kw_13740_pu npts= 35040 interval=0.25 mult = (file=../../../../../profiles/com_kw_13740_pu.csv) qmult = (file=../../../../../profiles/com_kvar_13740_pu.csv)

New Loadshape.com_kw_15271_pu npts= 35040 interval=0.25 mult = (file=../../../../../profiles/com_kw_15271_pu.csv) qmult = (file=../../../../../profiles/com_kvar_15271_pu.csv)

New Loadshape.com_kw_14349_pu npts= 35040 interval=0.25 mult = (file=../../../../../profiles/com_kw_14349_pu.csv) qmult = (file=../../../../../profiles/com_kvar_14349_pu.csv)

New Loadshape.com_kw_14986_pu npts= 35040 interval=0.25 mult = (file=../../../../../profiles/com_kw_14986_pu.csv) qmult = (file=../../../../../profiles/com_kvar_14986_pu.csv)

New Loadshape.com_kw_14574_pu npts= 35040 interval=0.25 mult = (file=../../../../../profiles/com_kw_14574_pu.csv) qmult = (file=../../../../../profiles/com_kvar_14574_pu.csv)

New Loadshape.com_kw_14976_pu npts= 35040 interval=0.25 mult = (file=../../../../../profiles/com_kw_14976_pu.csv) qmult = (file=../../../../../profiles/com_kvar_14976_pu.csv)

New Loadshape.com_kw_13842_pu npts= 35040 interval=0.25 mult = (file=../../../../../profiles/com_kw_13842_pu.csv) qmult = (file=../../../../../profiles/com_kvar_13842_pu.csv)

New Loadshape.com_kw_13682_pu npts= 35040 interval=0.25 mult = (file=../../../../../profiles/com_kw_13682_pu.csv) qmult = (file=../../../../../profiles/com_kvar_13682_pu.csv)

New Loadshape.com_kw_15235_pu npts= 35040 interval=0.25 mult = (file=../../../../../profiles/com_kw_15235_pu.csv) qmult = (file=../../../../../profiles/com_kvar_15235_pu.csv)

New Loadshape.com_kw_14340_pu npts= 35040 interval=0.25 mult = (file=../../../../../profiles/com_kw_14340_pu.csv) qmult = (file=../../../../../profiles/com_kvar_14340_pu.csv)
