New Load.load_p1ulv636_1 conn=wye bus1=p1ulv636.1 kV=0.12 Vminpu=0.8 Vmaxpu=1.2 model=1 kW=2.3700113203165794 kvar=1.0419328311463634 Phases=1 yearly=res_kw_327_pu

New Load.load_p1ulv636_2 conn=wye bus1=p1ulv636.2 kV=0.12 Vminpu=0.8 Vmaxpu=1.2 model=1 kW=2.3700113203165794 kvar=1.0419328311463634 Phases=1 yearly=res_kw_327_pu

New Load.load_p1ulv637_1 conn=wye bus1=p1ulv637.1 kV=0.12 Vminpu=0.8 Vmaxpu=1.2 model=1 kW=0.17638855280953816 kvar=0.11785766630597205 Phases=1 yearly=res_kw_1229_pu

New Load.load_p1ulv637_2 conn=wye bus1=p1ulv637.2 kV=0.12 Vminpu=0.8 Vmaxpu=1.2 model=1 kW=0.17638855280953816 kvar=0.11785766630597205 Phases=1 yearly=res_kw_1229_pu

New Load.load_p1ulv762 conn=wye bus1=p1ulv762.1.2.3 kV=0.48 Vminpu=0.8 Vmaxpu=1.2 model=1 kW=60.576254757604914 kvar=14.109046884850196 Phases=3 yearly=res_kw_1124_pu

New Load.load_p1ulv763 conn=wye bus1=p1ulv763.1.2.3 kV=0.48 Vminpu=0.8 Vmaxpu=1.2 model=1 kW=139.8917722207126 kvar=6.109246877535022 Phases=3 yearly=com_kw_14536_pu

New Load.load_p1ulv1169 conn=wye bus1=p1ulv1169.1.2.3 kV=0.48 Vminpu=0.8 Vmaxpu=1.2 model=1 kW=100.96563420518756 kvar=5.434664276741898 Phases=3 yearly=com_kw_13978_pu

New Load.load_p1ulv1170_1 conn=wye bus1=p1ulv1170.1 kV=0.12 Vminpu=0.8 Vmaxpu=1.2 model=1 kW=3.0502193323758338 kvar=0.7068547525403183 Phases=1 yearly=res_kw_407_pu

New Load.load_p1ulv1170_2 conn=wye bus1=p1ulv1170.2 kV=0.12 Vminpu=0.8 Vmaxpu=1.2 model=1 kW=3.0502193323758338 kvar=0.7068547525403183 Phases=1 yearly=res_kw_407_pu

New Load.load_p1ulv1172_1 conn=wye bus1=p1ulv1172.1 kV=0.12 Vminpu=0.8 Vmaxpu=1.2 model=1 kW=3.0502193323758338 kvar=0.7068547525403183 Phases=1 yearly=res_kw_407_pu

New Load.load_p1ulv1172_2 conn=wye bus1=p1ulv1172.2 kV=0.12 Vminpu=0.8 Vmaxpu=1.2 model=1 kW=3.0502193323758338 kvar=0.7068547525403183 Phases=1 yearly=res_kw_407_pu

New Load.load_p1ulv1173_1 conn=wye bus1=p1ulv1173.1 kV=0.12 Vminpu=0.8 Vmaxpu=1.2 model=1 kW=3.0502193323758338 kvar=0.7068547525403183 Phases=1 yearly=res_kw_407_pu

New Load.load_p1ulv1173_2 conn=wye bus1=p1ulv1173.2 kV=0.12 Vminpu=0.8 Vmaxpu=1.2 model=1 kW=3.0502193323758338 kvar=0.7068547525403183 Phases=1 yearly=res_kw_407_pu

New Load.load_p1ulv1174_1 conn=wye bus1=p1ulv1174.1 kV=0.12 Vminpu=0.8 Vmaxpu=1.2 model=1 kW=2.5137827263873103 kvar=0.7927782724892762 Phases=1 yearly=res_kw_621_pu

New Load.load_p1ulv1174_2 conn=wye bus1=p1ulv1174.2 kV=0.12 Vminpu=0.8 Vmaxpu=1.2 model=1 kW=2.5137827263873103 kvar=0.7927782724892762 Phases=1 yearly=res_kw_621_pu

New Load.load_p1ulv1175_1 conn=wye bus1=p1ulv1175.1 kV=0.12 Vminpu=0.8 Vmaxpu=1.2 model=1 kW=10.83188881764283 kvar=1.3668339336555673 Phases=1 yearly=res_kw_82_pu

New Load.load_p1ulv1175_2 conn=wye bus1=p1ulv1175.2 kV=0.12 Vminpu=0.8 Vmaxpu=1.2 model=1 kW=10.83188881764283 kvar=1.3668339336555673 Phases=1 yearly=res_kw_82_pu

New Load.load_p1ulv1176_1 conn=wye bus1=p1ulv1176.1 kV=0.12 Vminpu=0.8 Vmaxpu=1.2 model=1 kW=2.1578213071803583 kvar=0.8327090061289109 Phases=1 yearly=res_kw_696_pu

New Load.load_p1ulv1176_2 conn=wye bus1=p1ulv1176.2 kV=0.12 Vminpu=0.8 Vmaxpu=1.2 model=1 kW=2.1578213071803583 kvar=0.8327090061289109 Phases=1 yearly=res_kw_696_pu

New Load.load_p1ulv1177_1 conn=wye bus1=p1ulv1177.1 kV=0.12 Vminpu=0.8 Vmaxpu=1.2 model=1 kW=3.3701610259235064 kvar=1.065454990641787 Phases=1 yearly=res_kw_1037_pu

New Load.load_p1ulv1177_2 conn=wye bus1=p1ulv1177.2 kV=0.12 Vminpu=0.8 Vmaxpu=1.2 model=1 kW=3.3701610259235064 kvar=1.065454990641787 Phases=1 yearly=res_kw_1037_pu

New Load.load_p1ulv1178_1 conn=wye bus1=p1ulv1178.1 kV=0.12 Vminpu=0.8 Vmaxpu=1.2 model=1 kW=4.78815623948431 kvar=1.2110296754961107 Phases=1 yearly=res_kw_842_pu

New Load.load_p1ulv1178_2 conn=wye bus1=p1ulv1178.2 kV=0.12 Vminpu=0.8 Vmaxpu=1.2 model=1 kW=4.78815623948431 kvar=1.2110296754961107 Phases=1 yearly=res_kw_842_pu

New Load.load_p1ulv1179_1 conn=wye bus1=p1ulv1179.1 kV=0.12 Vminpu=0.8 Vmaxpu=1.2 model=1 kW=5.5396149838334106 kvar=1.3495096504699533 Phases=1 yearly=res_kw_1273_pu

New Load.load_p1ulv1179_2 conn=wye bus1=p1ulv1179.2 kV=0.12 Vminpu=0.8 Vmaxpu=1.2 model=1 kW=5.5396149838334106 kvar=1.3495096504699533 Phases=1 yearly=res_kw_1273_pu

New Load.load_p1ulv1180_1 conn=wye bus1=p1ulv1180.1 kV=0.12 Vminpu=0.8 Vmaxpu=1.2 model=1 kW=5.574466357705123 kvar=1.0791692562247137 Phases=1 yearly=res_kw_1083_pu

New Load.load_p1ulv1180_2 conn=wye bus1=p1ulv1180.2 kV=0.12 Vminpu=0.8 Vmaxpu=1.2 model=1 kW=5.574466357705123 kvar=1.0791692562247137 Phases=1 yearly=res_kw_1083_pu

New Load.load_p1ulv1181_1 conn=wye bus1=p1ulv1181.1 kV=0.12 Vminpu=0.8 Vmaxpu=1.2 model=1 kW=2.6241521841182514 kvar=0.8429304779950015 Phases=1 yearly=res_kw_33_pu

New Load.load_p1ulv1181_2 conn=wye bus1=p1ulv1181.2 kV=0.12 Vminpu=0.8 Vmaxpu=1.2 model=1 kW=2.6241521841182514 kvar=0.8429304779950015 Phases=1 yearly=res_kw_33_pu

New Load.load_p1ulv1182_1 conn=wye bus1=p1ulv1182.1 kV=0.12 Vminpu=0.8 Vmaxpu=1.2 model=1 kW=3.3701610259235064 kvar=1.065454990641787 Phases=1 yearly=res_kw_1037_pu

New Load.load_p1ulv1182_2 conn=wye bus1=p1ulv1182.2 kV=0.12 Vminpu=0.8 Vmaxpu=1.2 model=1 kW=3.3701610259235064 kvar=1.065454990641787 Phases=1 yearly=res_kw_1037_pu

New Load.load_p1ulv1183_1 conn=wye bus1=p1ulv1183.1 kV=0.12 Vminpu=0.8 Vmaxpu=1.2 model=1 kW=2.40000228705824 kvar=1.0173787262529668 Phases=1 yearly=res_kw_1205_pu

New Load.load_p1ulv1183_2 conn=wye bus1=p1ulv1183.2 kV=0.12 Vminpu=0.8 Vmaxpu=1.2 model=1 kW=2.40000228705824 kvar=1.0173787262529668 Phases=1 yearly=res_kw_1205_pu

New Load.load_p1ulv1184_1 conn=wye bus1=p1ulv1184.1 kV=0.12 Vminpu=0.8 Vmaxpu=1.2 model=1 kW=3.8029744718879392 kvar=1.1462670306842289 Phases=1 yearly=res_kw_263_pu

New Load.load_p1ulv1184_2 conn=wye bus1=p1ulv1184.2 kV=0.12 Vminpu=0.8 Vmaxpu=1.2 model=1 kW=3.8029744718879392 kvar=1.1462670306842289 Phases=1 yearly=res_kw_263_pu

New Load.load_p1ulv1185_1 conn=wye bus1=p1ulv1185.1 kV=0.12 Vminpu=0.8 Vmaxpu=1.2 model=1 kW=3.6844020253442458 kvar=1.4451491397155931 Phases=1 yearly=res_kw_1258_pu

New Load.load_p1ulv1185_2 conn=wye bus1=p1ulv1185.2 kV=0.12 Vminpu=0.8 Vmaxpu=1.2 model=1 kW=3.6844020253442458 kvar=1.4451491397155931 Phases=1 yearly=res_kw_1258_pu

New Load.load_p1ulv1186_1 conn=wye bus1=p1ulv1186.1 kV=0.12 Vminpu=0.8 Vmaxpu=1.2 model=1 kW=2.6241521841182514 kvar=0.8429304779950015 Phases=1 yearly=res_kw_33_pu

New Load.load_p1ulv1186_2 conn=wye bus1=p1ulv1186.2 kV=0.12 Vminpu=0.8 Vmaxpu=1.2 model=1 kW=2.6241521841182514 kvar=0.8429304779950015 Phases=1 yearly=res_kw_33_pu

New Load.load_p1ulv1187_1 conn=wye bus1=p1ulv1187.1 kV=0.12 Vminpu=0.8 Vmaxpu=1.2 model=1 kW=3.3701610259235064 kvar=1.065454990641787 Phases=1 yearly=res_kw_1037_pu

New Load.load_p1ulv1187_2 conn=wye bus1=p1ulv1187.2 kV=0.12 Vminpu=0.8 Vmaxpu=1.2 model=1 kW=3.3701610259235064 kvar=1.065454990641787 Phases=1 yearly=res_kw_1037_pu

New Load.load_p1ulv1188_1 conn=wye bus1=p1ulv1188.1 kV=0.12 Vminpu=0.8 Vmaxpu=1.2 model=1 kW=3.469521951913567 kvar=0.9490620687569232 Phases=1 yearly=res_kw_825_pu

New Load.load_p1ulv1188_2 conn=wye bus1=p1ulv1188.2 kV=0.12 Vminpu=0.8 Vmaxpu=1.2 model=1 kW=3.469521951913567 kvar=0.9490620687569232 Phases=1 yearly=res_kw_825_pu

New Load.load_p1ulv1189_1 conn=wye bus1=p1ulv1189.1 kV=0.12 Vminpu=0.8 Vmaxpu=1.2 model=1 kW=3.8029744718879392 kvar=1.1462670306842289 Phases=1 yearly=res_kw_263_pu

New Load.load_p1ulv1189_2 conn=wye bus1=p1ulv1189.2 kV=0.12 Vminpu=0.8 Vmaxpu=1.2 model=1 kW=3.8029744718879392 kvar=1.1462670306842289 Phases=1 yearly=res_kw_263_pu

New Load.load_p1ulv1190_1 conn=wye bus1=p1ulv1190.1 kV=0.12 Vminpu=0.8 Vmaxpu=1.2 model=1 kW=2.1376631749204993 kvar=0.6218033466021168 Phases=1 yearly=res_kw_93_pu

New Load.load_p1ulv1190_2 conn=wye bus1=p1ulv1190.2 kV=0.12 Vminpu=0.8 Vmaxpu=1.2 model=1 kW=2.1376631749204993 kvar=0.6218033466021168 Phases=1 yearly=res_kw_93_pu

New Load.load_p1ulv1191_1 conn=wye bus1=p1ulv1190.1 kV=0.12 Vminpu=0.8 Vmaxpu=1.2 model=1 kW=2.605021030189827 kvar=1.0007509371876184 Phases=1 yearly=res_kw_24_pu

New Load.load_p1ulv1191_2 conn=wye bus1=p1ulv1190.2 kV=0.12 Vminpu=0.8 Vmaxpu=1.2 model=1 kW=2.605021030189827 kvar=1.0007509371876184 Phases=1 yearly=res_kw_24_pu

New Load.load_p1ulv1192_1 conn=wye bus1=p1ulv1192.1 kV=0.12 Vminpu=0.8 Vmaxpu=1.2 model=1 kW=2.6241521841182514 kvar=0.8429304779950015 Phases=1 yearly=res_kw_33_pu

New Load.load_p1ulv1192_2 conn=wye bus1=p1ulv1192.2 kV=0.12 Vminpu=0.8 Vmaxpu=1.2 model=1 kW=2.6241521841182514 kvar=0.8429304779950015 Phases=1 yearly=res_kw_33_pu

New Load.load_p1ulv1193_1 conn=wye bus1=p1ulv1193.1 kV=0.12 Vminpu=0.8 Vmaxpu=1.2 model=1 kW=18.844115916391704 kvar=4.2885790500311325 Phases=1 yearly=res_kw_408_pu

New Load.load_p1ulv1193_2 conn=wye bus1=p1ulv1193.2 kV=0.12 Vminpu=0.8 Vmaxpu=1.2 model=1 kW=18.844115916391704 kvar=4.2885790500311325 Phases=1 yearly=res_kw_408_pu

New Load.load_p1ulv1194_1 conn=wye bus1=p1ulv1194.1 kV=0.12 Vminpu=0.8 Vmaxpu=1.2 model=1 kW=3.3701610259235064 kvar=1.065454990641787 Phases=1 yearly=res_kw_1037_pu

New Load.load_p1ulv1194_2 conn=wye bus1=p1ulv1194.2 kV=0.12 Vminpu=0.8 Vmaxpu=1.2 model=1 kW=3.3701610259235064 kvar=1.065454990641787 Phases=1 yearly=res_kw_1037_pu

New Load.load_p1ulv1195_1 conn=wye bus1=p1ulv1195.1 kV=0.12 Vminpu=0.8 Vmaxpu=1.2 model=1 kW=2.6241521841182514 kvar=0.8429304779950015 Phases=1 yearly=res_kw_33_pu

New Load.load_p1ulv1195_2 conn=wye bus1=p1ulv1195.2 kV=0.12 Vminpu=0.8 Vmaxpu=1.2 model=1 kW=2.6241521841182514 kvar=0.8429304779950015 Phases=1 yearly=res_kw_33_pu

New Load.load_p1ulv1196_1 conn=wye bus1=p1ulv1196.1 kV=0.12 Vminpu=0.8 Vmaxpu=1.2 model=1 kW=2.6241521841182514 kvar=0.8429304779950015 Phases=1 yearly=res_kw_33_pu

New Load.load_p1ulv1196_2 conn=wye bus1=p1ulv1196.2 kV=0.12 Vminpu=0.8 Vmaxpu=1.2 model=1 kW=2.6241521841182514 kvar=0.8429304779950015 Phases=1 yearly=res_kw_33_pu

New Load.load_p1ulv1197_1 conn=wye bus1=p1ulv1197.1 kV=0.12 Vminpu=0.8 Vmaxpu=1.2 model=1 kW=8.01962100453296 kvar=1.9011506674959975 Phases=1 yearly=res_kw_380_pu

New Load.load_p1ulv1197_2 conn=wye bus1=p1ulv1197.2 kV=0.12 Vminpu=0.8 Vmaxpu=1.2 model=1 kW=8.01962100453296 kvar=1.9011506674959975 Phases=1 yearly=res_kw_380_pu

New Load.load_p1ulv1198 conn=wye bus1=p1ulv1198.1.2.3 kV=0.48 Vminpu=0.8 Vmaxpu=1.2 model=1 kW=31.56390894948716 kvar=5.59016195527881 Phases=3 yearly=res_kw_76_pu

New Load.load_p1ulv1199_1 conn=wye bus1=p1ulv1172.1 kV=0.12 Vminpu=0.8 Vmaxpu=1.2 model=1 kW=2.605021030189827 kvar=1.0007509371876184 Phases=1 yearly=res_kw_24_pu

New Load.load_p1ulv1199_2 conn=wye bus1=p1ulv1172.2 kV=0.12 Vminpu=0.8 Vmaxpu=1.2 model=1 kW=2.605021030189827 kvar=1.0007509371876184 Phases=1 yearly=res_kw_24_pu

New Load.load_p1ulv1200_1 conn=wye bus1=p1ulv1200.1 kV=0.12 Vminpu=0.8 Vmaxpu=1.2 model=1 kW=2.6241521841182514 kvar=0.8429304779950015 Phases=1 yearly=res_kw_33_pu

New Load.load_p1ulv1200_2 conn=wye bus1=p1ulv1200.2 kV=0.12 Vminpu=0.8 Vmaxpu=1.2 model=1 kW=2.6241521841182514 kvar=0.8429304779950015 Phases=1 yearly=res_kw_33_pu

New Load.load_p1ulv1201_1 conn=wye bus1=p1ulv1201.1 kV=0.12 Vminpu=0.8 Vmaxpu=1.2 model=1 kW=3.3641909207712115 kvar=0.9284266244461494 Phases=1 yearly=res_kw_523_pu

New Load.load_p1ulv1201_2 conn=wye bus1=p1ulv1201.2 kV=0.12 Vminpu=0.8 Vmaxpu=1.2 model=1 kW=3.3641909207712115 kvar=0.9284266244461494 Phases=1 yearly=res_kw_523_pu

New Load.load_p1ulv1202_1 conn=wye bus1=p1ulv1202.1 kV=0.12 Vminpu=0.8 Vmaxpu=1.2 model=1 kW=3.8748715750127736 kvar=1.5614372175332516 Phases=1 yearly=res_kw_517_pu

New Load.load_p1ulv1202_2 conn=wye bus1=p1ulv1202.2 kV=0.12 Vminpu=0.8 Vmaxpu=1.2 model=1 kW=3.8748715750127736 kvar=1.5614372175332516 Phases=1 yearly=res_kw_517_pu

New Load.load_p1ulv1203_1 conn=wye bus1=p1ulv1203.1 kV=0.12 Vminpu=0.8 Vmaxpu=1.2 model=1 kW=4.308133006917192 kvar=0.41229021891738343 Phases=1 yearly=res_kw_173_pu

New Load.load_p1ulv1203_2 conn=wye bus1=p1ulv1203.2 kV=0.12 Vminpu=0.8 Vmaxpu=1.2 model=1 kW=4.308133006917192 kvar=0.41229021891738343 Phases=1 yearly=res_kw_173_pu

New Load.load_p1ulv1204_1 conn=wye bus1=p1ulv1204.1 kV=0.12 Vminpu=0.8 Vmaxpu=1.2 model=1 kW=2.4402285312138985 kvar=0.9342273883677934 Phases=1 yearly=res_kw_409_pu

New Load.load_p1ulv1204_2 conn=wye bus1=p1ulv1204.2 kV=0.12 Vminpu=0.8 Vmaxpu=1.2 model=1 kW=2.4402285312138985 kvar=0.9342273883677934 Phases=1 yearly=res_kw_409_pu

New Load.load_p1ulv1205_1 conn=wye bus1=p1ulv1205.1 kV=0.12 Vminpu=0.8 Vmaxpu=1.2 model=1 kW=6.484825325204597 kvar=1.6440419394084307 Phases=1 yearly=res_kw_1115_pu

New Load.load_p1ulv1205_2 conn=wye bus1=p1ulv1205.2 kV=0.12 Vminpu=0.8 Vmaxpu=1.2 model=1 kW=6.484825325204597 kvar=1.6440419394084307 Phases=1 yearly=res_kw_1115_pu

New Load.load_p1ulv1206_1 conn=wye bus1=p1ulv1206.1 kV=0.12 Vminpu=0.8 Vmaxpu=1.2 model=1 kW=2.5047232020051142 kvar=0.6800922265265169 Phases=1 yearly=res_kw_162_pu

New Load.load_p1ulv1206_2 conn=wye bus1=p1ulv1206.2 kV=0.12 Vminpu=0.8 Vmaxpu=1.2 model=1 kW=2.5047232020051142 kvar=0.6800922265265169 Phases=1 yearly=res_kw_162_pu

New Load.load_p1ulv1207_1 conn=wye bus1=p1ulv1207.1 kV=0.12 Vminpu=0.8 Vmaxpu=1.2 model=1 kW=3.3701610259235064 kvar=1.065454990641787 Phases=1 yearly=res_kw_1037_pu

New Load.load_p1ulv1207_2 conn=wye bus1=p1ulv1207.2 kV=0.12 Vminpu=0.8 Vmaxpu=1.2 model=1 kW=3.3701610259235064 kvar=1.065454990641787 Phases=1 yearly=res_kw_1037_pu

New Load.load_p1ulv1208_1 conn=wye bus1=p1ulv1208.1 kV=0.12 Vminpu=0.8 Vmaxpu=1.2 model=1 kW=7.04256695844029 kvar=1.659740351203588 Phases=1 yearly=res_kw_707_pu

New Load.load_p1ulv1208_2 conn=wye bus1=p1ulv1208.2 kV=0.12 Vminpu=0.8 Vmaxpu=1.2 model=1 kW=7.04256695844029 kvar=1.659740351203588 Phases=1 yearly=res_kw_707_pu

New Load.load_p1ulv1209_1 conn=wye bus1=p1ulv1209.1 kV=0.12 Vminpu=0.8 Vmaxpu=1.2 model=1 kW=3.6844020253442458 kvar=1.4451491397155931 Phases=1 yearly=res_kw_1258_pu

New Load.load_p1ulv1209_2 conn=wye bus1=p1ulv1209.2 kV=0.12 Vminpu=0.8 Vmaxpu=1.2 model=1 kW=3.6844020253442458 kvar=1.4451491397155931 Phases=1 yearly=res_kw_1258_pu

New Load.load_p1ulv1210_1 conn=wye bus1=p1ulv1210.1 kV=0.12 Vminpu=0.8 Vmaxpu=1.2 model=1 kW=7.820072877358693 kvar=1.759853089528969 Phases=1 yearly=res_kw_97_pu

New Load.load_p1ulv1210_2 conn=wye bus1=p1ulv1210.2 kV=0.12 Vminpu=0.8 Vmaxpu=1.2 model=1 kW=7.820072877358693 kvar=1.759853089528969 Phases=1 yearly=res_kw_97_pu

New Load.load_p1ulv1211_1 conn=wye bus1=p1ulv1211.1 kV=0.12 Vminpu=0.8 Vmaxpu=1.2 model=1 kW=5.5396149838334106 kvar=1.3495096504699533 Phases=1 yearly=res_kw_1273_pu

New Load.load_p1ulv1211_2 conn=wye bus1=p1ulv1211.2 kV=0.12 Vminpu=0.8 Vmaxpu=1.2 model=1 kW=5.5396149838334106 kvar=1.3495096504699533 Phases=1 yearly=res_kw_1273_pu

New Load.load_p1ulv1212_1 conn=wye bus1=p1ulv1212.1 kV=0.12 Vminpu=0.8 Vmaxpu=1.2 model=1 kW=5.675346369339635 kvar=1.238985226090579 Phases=1 yearly=res_kw_1186_pu

New Load.load_p1ulv1212_2 conn=wye bus1=p1ulv1212.2 kV=0.12 Vminpu=0.8 Vmaxpu=1.2 model=1 kW=5.675346369339635 kvar=1.238985226090579 Phases=1 yearly=res_kw_1186_pu

New Load.load_p1ulv1213_1 conn=wye bus1=p1ulv1213.1 kV=0.12 Vminpu=0.8 Vmaxpu=1.2 model=1 kW=2.6241521841182514 kvar=0.8429304779950015 Phases=1 yearly=res_kw_33_pu

New Load.load_p1ulv1213_2 conn=wye bus1=p1ulv1213.2 kV=0.12 Vminpu=0.8 Vmaxpu=1.2 model=1 kW=2.6241521841182514 kvar=0.8429304779950015 Phases=1 yearly=res_kw_33_pu

New Load.load_p1ulv1214_1 conn=wye bus1=p1ulv1214.1 kV=0.12 Vminpu=0.8 Vmaxpu=1.2 model=1 kW=4.47171304939181 kvar=1.1676103385976955 Phases=1 yearly=res_kw_627_pu

New Load.load_p1ulv1214_2 conn=wye bus1=p1ulv1214.2 kV=0.12 Vminpu=0.8 Vmaxpu=1.2 model=1 kW=4.47171304939181 kvar=1.1676103385976955 Phases=1 yearly=res_kw_627_pu

New Load.load_p1ulv1215_1 conn=wye bus1=p1ulv1215.1 kV=0.12 Vminpu=0.8 Vmaxpu=1.2 model=1 kW=6.484825325204597 kvar=1.6440419394084307 Phases=1 yearly=res_kw_1115_pu

New Load.load_p1ulv1215_2 conn=wye bus1=p1ulv1215.2 kV=0.12 Vminpu=0.8 Vmaxpu=1.2 model=1 kW=6.484825325204597 kvar=1.6440419394084307 Phases=1 yearly=res_kw_1115_pu

New Load.load_p1ulv1216_1 conn=wye bus1=p1ulv1216.1 kV=0.12 Vminpu=0.8 Vmaxpu=1.2 model=1 kW=4.78815623948431 kvar=1.2110296754961107 Phases=1 yearly=res_kw_842_pu

New Load.load_p1ulv1216_2 conn=wye bus1=p1ulv1216.2 kV=0.12 Vminpu=0.8 Vmaxpu=1.2 model=1 kW=4.78815623948431 kvar=1.2110296754961107 Phases=1 yearly=res_kw_842_pu

New Load.load_p1ulv1217_1 conn=wye bus1=p1ulv1217.1 kV=0.12 Vminpu=0.8 Vmaxpu=1.2 model=1 kW=4.788649591238137 kvar=1.023651375705972 Phases=1 yearly=res_kw_512_pu

New Load.load_p1ulv1217_2 conn=wye bus1=p1ulv1217.2 kV=0.12 Vminpu=0.8 Vmaxpu=1.2 model=1 kW=4.788649591238137 kvar=1.023651375705972 Phases=1 yearly=res_kw_512_pu

New Load.load_p1ulv1218_1 conn=wye bus1=p1ulv1218.1 kV=0.12 Vminpu=0.8 Vmaxpu=1.2 model=1 kW=2.6241521841182514 kvar=0.8429304779950015 Phases=1 yearly=res_kw_33_pu

New Load.load_p1ulv1218_2 conn=wye bus1=p1ulv1218.2 kV=0.12 Vminpu=0.8 Vmaxpu=1.2 model=1 kW=2.6241521841182514 kvar=0.8429304779950015 Phases=1 yearly=res_kw_33_pu

New Load.load_p1ulv1219_1 conn=wye bus1=p1ulv1219.1 kV=0.12 Vminpu=0.8 Vmaxpu=1.2 model=1 kW=2.6241521841182514 kvar=0.8429304779950015 Phases=1 yearly=res_kw_33_pu

New Load.load_p1ulv1219_2 conn=wye bus1=p1ulv1219.2 kV=0.12 Vminpu=0.8 Vmaxpu=1.2 model=1 kW=2.6241521841182514 kvar=0.8429304779950015 Phases=1 yearly=res_kw_33_pu

New Load.load_p1ulv1220_1 conn=wye bus1=p1ulv1220.1 kV=0.12 Vminpu=0.8 Vmaxpu=1.2 model=1 kW=6.782523491229934 kvar=1.0594739670560112 Phases=1 yearly=res_kw_564_pu

New Load.load_p1ulv1220_2 conn=wye bus1=p1ulv1220.2 kV=0.12 Vminpu=0.8 Vmaxpu=1.2 model=1 kW=6.782523491229934 kvar=1.0594739670560112 Phases=1 yearly=res_kw_564_pu

New Load.load_p1ulv1221_1 conn=wye bus1=p1ulv1221.1 kV=0.12 Vminpu=0.8 Vmaxpu=1.2 model=1 kW=7.820072877358693 kvar=1.759853089528969 Phases=1 yearly=res_kw_97_pu

New Load.load_p1ulv1221_2 conn=wye bus1=p1ulv1221.2 kV=0.12 Vminpu=0.8 Vmaxpu=1.2 model=1 kW=7.820072877358693 kvar=1.759853089528969 Phases=1 yearly=res_kw_97_pu

New Load.load_p1ulv1222_1 conn=wye bus1=p1ulv1222.1 kV=0.12 Vminpu=0.8 Vmaxpu=1.2 model=1 kW=2.40000228705824 kvar=1.0173787262529668 Phases=1 yearly=res_kw_1205_pu

New Load.load_p1ulv1222_2 conn=wye bus1=p1ulv1222.2 kV=0.12 Vminpu=0.8 Vmaxpu=1.2 model=1 kW=2.40000228705824 kvar=1.0173787262529668 Phases=1 yearly=res_kw_1205_pu

New Load.load_p1ulv1223_1 conn=wye bus1=p1ulv1223.1 kV=0.12 Vminpu=0.8 Vmaxpu=1.2 model=1 kW=4.4719654544990375 kvar=1.0992469987144322 Phases=1 yearly=res_kw_1157_pu

New Load.load_p1ulv1223_2 conn=wye bus1=p1ulv1223.2 kV=0.12 Vminpu=0.8 Vmaxpu=1.2 model=1 kW=4.4719654544990375 kvar=1.0992469987144322 Phases=1 yearly=res_kw_1157_pu

New Load.load_p1ulv1224_1 conn=wye bus1=p1ulv1224.1 kV=0.12 Vminpu=0.8 Vmaxpu=1.2 model=1 kW=5.163806898070874 kvar=0.9381412991116911 Phases=1 yearly=res_kw_98_pu

New Load.load_p1ulv1224_2 conn=wye bus1=p1ulv1224.2 kV=0.12 Vminpu=0.8 Vmaxpu=1.2 model=1 kW=5.163806898070874 kvar=0.9381412991116911 Phases=1 yearly=res_kw_98_pu

New Load.load_p1ulv1225_1 conn=wye bus1=p1ulv1225.1 kV=0.12 Vminpu=0.8 Vmaxpu=1.2 model=1 kW=4.78815623948431 kvar=1.2110296754961107 Phases=1 yearly=res_kw_842_pu

New Load.load_p1ulv1225_2 conn=wye bus1=p1ulv1225.2 kV=0.12 Vminpu=0.8 Vmaxpu=1.2 model=1 kW=4.78815623948431 kvar=1.2110296754961107 Phases=1 yearly=res_kw_842_pu

New Load.load_p1ulv1226_1 conn=wye bus1=p1ulv1224.1 kV=0.12 Vminpu=0.8 Vmaxpu=1.2 model=1 kW=2.916803644387601 kvar=0.11499518252231355 Phases=1 yearly=res_kw_1094_pu

New Load.load_p1ulv1226_2 conn=wye bus1=p1ulv1224.2 kV=0.12 Vminpu=0.8 Vmaxpu=1.2 model=1 kW=2.916803644387601 kvar=0.11499518252231355 Phases=1 yearly=res_kw_1094_pu

New Load.load_p1ulv1227_1 conn=wye bus1=p1ulv1227.1 kV=0.12 Vminpu=0.8 Vmaxpu=1.2 model=1 kW=2.6241521841182514 kvar=0.8429304779950015 Phases=1 yearly=res_kw_33_pu

New Load.load_p1ulv1227_2 conn=wye bus1=p1ulv1227.2 kV=0.12 Vminpu=0.8 Vmaxpu=1.2 model=1 kW=2.6241521841182514 kvar=0.8429304779950015 Phases=1 yearly=res_kw_33_pu

New Load.load_p1ulv1228_1 conn=wye bus1=p1ulv1228.1 kV=0.12 Vminpu=0.8 Vmaxpu=1.2 model=1 kW=2.6241521841182514 kvar=0.8429304779950015 Phases=1 yearly=res_kw_33_pu

New Load.load_p1ulv1228_2 conn=wye bus1=p1ulv1228.2 kV=0.12 Vminpu=0.8 Vmaxpu=1.2 model=1 kW=2.6241521841182514 kvar=0.8429304779950015 Phases=1 yearly=res_kw_33_pu

New Load.load_p1ulv1229_1 conn=wye bus1=p1ulv1229.1 kV=0.12 Vminpu=0.8 Vmaxpu=1.2 model=1 kW=5.574466357705123 kvar=1.0791692562247137 Phases=1 yearly=res_kw_1083_pu

New Load.load_p1ulv1229_2 conn=wye bus1=p1ulv1229.2 kV=0.12 Vminpu=0.8 Vmaxpu=1.2 model=1 kW=5.574466357705123 kvar=1.0791692562247137 Phases=1 yearly=res_kw_1083_pu

New Load.load_p1ulv1230_1 conn=wye bus1=p1ulv1230.1 kV=0.12 Vminpu=0.8 Vmaxpu=1.2 model=1 kW=3.3701610259235064 kvar=1.065454990641787 Phases=1 yearly=res_kw_1037_pu

New Load.load_p1ulv1230_2 conn=wye bus1=p1ulv1230.2 kV=0.12 Vminpu=0.8 Vmaxpu=1.2 model=1 kW=3.3701610259235064 kvar=1.065454990641787 Phases=1 yearly=res_kw_1037_pu

New Load.load_p1ulv1231_1 conn=wye bus1=p1ulv1231.1 kV=0.12 Vminpu=0.8 Vmaxpu=1.2 model=1 kW=3.3701610259235064 kvar=1.065454990641787 Phases=1 yearly=res_kw_1037_pu

New Load.load_p1ulv1231_2 conn=wye bus1=p1ulv1231.2 kV=0.12 Vminpu=0.8 Vmaxpu=1.2 model=1 kW=3.3701610259235064 kvar=1.065454990641787 Phases=1 yearly=res_kw_1037_pu

New Load.load_p1ulv1232_1 conn=wye bus1=p1ulv1232.1 kV=0.12 Vminpu=0.8 Vmaxpu=1.2 model=1 kW=2.6241521841182514 kvar=0.8429304779950015 Phases=1 yearly=res_kw_33_pu

New Load.load_p1ulv1232_2 conn=wye bus1=p1ulv1232.2 kV=0.12 Vminpu=0.8 Vmaxpu=1.2 model=1 kW=2.6241521841182514 kvar=0.8429304779950015 Phases=1 yearly=res_kw_33_pu

New Load.load_p1ulv1233_1 conn=wye bus1=p1ulv1233.1 kV=0.12 Vminpu=0.8 Vmaxpu=1.2 model=1 kW=5.991917116566147 kvar=1.6692124001399427 Phases=1 yearly=res_kw_314_pu

New Load.load_p1ulv1233_2 conn=wye bus1=p1ulv1233.2 kV=0.12 Vminpu=0.8 Vmaxpu=1.2 model=1 kW=5.991917116566147 kvar=1.6692124001399427 Phases=1 yearly=res_kw_314_pu

New Load.load_p1ulv1234_1 conn=wye bus1=p1ulv1234.1 kV=0.12 Vminpu=0.8 Vmaxpu=1.2 model=1 kW=2.6241521841182514 kvar=0.8429304779950015 Phases=1 yearly=res_kw_33_pu

New Load.load_p1ulv1234_2 conn=wye bus1=p1ulv1234.2 kV=0.12 Vminpu=0.8 Vmaxpu=1.2 model=1 kW=2.6241521841182514 kvar=0.8429304779950015 Phases=1 yearly=res_kw_33_pu

New Load.load_p1ulv1235_1 conn=wye bus1=p1ulv1235.1 kV=0.12 Vminpu=0.8 Vmaxpu=1.2 model=1 kW=2.605021030189827 kvar=1.0007509371876184 Phases=1 yearly=res_kw_24_pu

New Load.load_p1ulv1235_2 conn=wye bus1=p1ulv1235.2 kV=0.12 Vminpu=0.8 Vmaxpu=1.2 model=1 kW=2.605021030189827 kvar=1.0007509371876184 Phases=1 yearly=res_kw_24_pu

New Load.load_p1ulv1236_1 conn=wye bus1=p1ulv1236.1 kV=0.12 Vminpu=0.8 Vmaxpu=1.2 model=1 kW=2.4402285312138985 kvar=0.9342273883677934 Phases=1 yearly=res_kw_409_pu

New Load.load_p1ulv1236_2 conn=wye bus1=p1ulv1236.2 kV=0.12 Vminpu=0.8 Vmaxpu=1.2 model=1 kW=2.4402285312138985 kvar=0.9342273883677934 Phases=1 yearly=res_kw_409_pu

New Load.load_p1ulv1237_1 conn=wye bus1=p1ulv1237.1 kV=0.12 Vminpu=0.8 Vmaxpu=1.2 model=1 kW=4.78815623948431 kvar=1.2110296754961107 Phases=1 yearly=res_kw_842_pu

New Load.load_p1ulv1237_2 conn=wye bus1=p1ulv1237.2 kV=0.12 Vminpu=0.8 Vmaxpu=1.2 model=1 kW=4.78815623948431 kvar=1.2110296754961107 Phases=1 yearly=res_kw_842_pu

New Load.load_p1ulv1238_1 conn=wye bus1=p1ulv1238.1 kV=0.12 Vminpu=0.8 Vmaxpu=1.2 model=1 kW=2.4402285312138985 kvar=0.9342273883677934 Phases=1 yearly=res_kw_409_pu

New Load.load_p1ulv1238_2 conn=wye bus1=p1ulv1238.2 kV=0.12 Vminpu=0.8 Vmaxpu=1.2 model=1 kW=2.4402285312138985 kvar=0.9342273883677934 Phases=1 yearly=res_kw_409_pu

New Load.load_p1ulv1242_1 conn=wye bus1=p1ulv1242.1 kV=0.12 Vminpu=0.8 Vmaxpu=1.2 model=1 kW=4.04330412347979 kvar=1.1447656790699707 Phases=1 yearly=res_kw_307_pu

New Load.load_p1ulv1242_2 conn=wye bus1=p1ulv1242.2 kV=0.12 Vminpu=0.8 Vmaxpu=1.2 model=1 kW=4.04330412347979 kvar=1.1447656790699707 Phases=1 yearly=res_kw_307_pu

New Load.load_p1ulv1247_1 conn=wye bus1=p1ulv1247.1 kV=0.12 Vminpu=0.8 Vmaxpu=1.2 model=1 kW=7.235767165926777 kvar=2.6686267970114135 Phases=1 yearly=res_kw_652_pu

New Load.load_p1ulv1247_2 conn=wye bus1=p1ulv1247.2 kV=0.12 Vminpu=0.8 Vmaxpu=1.2 model=1 kW=7.235767165926777 kvar=2.6686267970114135 Phases=1 yearly=res_kw_652_pu

New Load.load_p1ulv1256_1 conn=wye bus1=p1ulv1256.1 kV=0.12 Vminpu=0.8 Vmaxpu=1.2 model=1 kW=19.266451356753247 kvar=3.031659959832452 Phases=1 yearly=res_kw_988_pu

New Load.load_p1ulv1256_2 conn=wye bus1=p1ulv1256.2 kV=0.12 Vminpu=0.8 Vmaxpu=1.2 model=1 kW=19.266451356753247 kvar=3.031659959832452 Phases=1 yearly=res_kw_988_pu

New Load.load_p1ulv1257_1 conn=wye bus1=p1ulv1257.1 kV=0.12 Vminpu=0.8 Vmaxpu=1.2 model=1 kW=6.817994061838357 kvar=0.9100697715919355 Phases=1 yearly=res_kw_1099_pu

New Load.load_p1ulv1257_2 conn=wye bus1=p1ulv1257.2 kV=0.12 Vminpu=0.8 Vmaxpu=1.2 model=1 kW=6.817994061838357 kvar=0.9100697715919355 Phases=1 yearly=res_kw_1099_pu

New Load.load_p1ulv1261_1 conn=wye bus1=p1ulv1261.1 kV=0.12 Vminpu=0.8 Vmaxpu=1.2 model=1 kW=6.817994061838357 kvar=0.9100697715919355 Phases=1 yearly=res_kw_1099_pu

New Load.load_p1ulv1261_2 conn=wye bus1=p1ulv1261.2 kV=0.12 Vminpu=0.8 Vmaxpu=1.2 model=1 kW=6.817994061838357 kvar=0.9100697715919355 Phases=1 yearly=res_kw_1099_pu

New Load.load_p1ulv1268_1 conn=wye bus1=p1ulv1268.1 kV=0.12 Vminpu=0.8 Vmaxpu=1.2 model=1 kW=6.817994061838357 kvar=0.9100697715919355 Phases=1 yearly=res_kw_1099_pu

New Load.load_p1ulv1268_2 conn=wye bus1=p1ulv1268.2 kV=0.12 Vminpu=0.8 Vmaxpu=1.2 model=1 kW=6.817994061838357 kvar=0.9100697715919355 Phases=1 yearly=res_kw_1099_pu

New Load.load_p1ulv1271_1 conn=wye bus1=p1ulv1271.1 kV=0.12 Vminpu=0.8 Vmaxpu=1.2 model=1 kW=2.605021030189827 kvar=1.0007509371876184 Phases=1 yearly=res_kw_24_pu

New Load.load_p1ulv1271_2 conn=wye bus1=p1ulv1271.2 kV=0.12 Vminpu=0.8 Vmaxpu=1.2 model=1 kW=2.605021030189827 kvar=1.0007509371876184 Phases=1 yearly=res_kw_24_pu

New Load.load_p1ulv1272_1 conn=wye bus1=p1ulv1272.1 kV=0.12 Vminpu=0.8 Vmaxpu=1.2 model=1 kW=2.605021030189827 kvar=1.0007509371876184 Phases=1 yearly=res_kw_24_pu

New Load.load_p1ulv1272_2 conn=wye bus1=p1ulv1272.2 kV=0.12 Vminpu=0.8 Vmaxpu=1.2 model=1 kW=2.605021030189827 kvar=1.0007509371876184 Phases=1 yearly=res_kw_24_pu

New Load.load_p1ulv1273_1 conn=wye bus1=p1ulv1273.1 kV=0.12 Vminpu=0.8 Vmaxpu=1.2 model=1 kW=2.6241521841182514 kvar=0.8429304779950015 Phases=1 yearly=res_kw_33_pu

New Load.load_p1ulv1273_2 conn=wye bus1=p1ulv1273.2 kV=0.12 Vminpu=0.8 Vmaxpu=1.2 model=1 kW=2.6241521841182514 kvar=0.8429304779950015 Phases=1 yearly=res_kw_33_pu

New Load.load_p1ulv1274_1 conn=wye bus1=p1ulv1274.1 kV=0.12 Vminpu=0.8 Vmaxpu=1.2 model=1 kW=2.6241521841182514 kvar=0.8429304779950015 Phases=1 yearly=res_kw_33_pu

New Load.load_p1ulv1274_2 conn=wye bus1=p1ulv1274.2 kV=0.12 Vminpu=0.8 Vmaxpu=1.2 model=1 kW=2.6241521841182514 kvar=0.8429304779950015 Phases=1 yearly=res_kw_33_pu

New Load.load_p1ulv1276_1 conn=wye bus1=p1ulv1276.1 kV=0.12 Vminpu=0.8 Vmaxpu=1.2 model=1 kW=5.675346369339635 kvar=1.238985226090579 Phases=1 yearly=res_kw_1186_pu

New Load.load_p1ulv1276_2 conn=wye bus1=p1ulv1276.2 kV=0.12 Vminpu=0.8 Vmaxpu=1.2 model=1 kW=5.675346369339635 kvar=1.238985226090579 Phases=1 yearly=res_kw_1186_pu

New Load.load_p1ulv1277_1 conn=wye bus1=p1ulv1277.1 kV=0.12 Vminpu=0.8 Vmaxpu=1.2 model=1 kW=4.889402611994926 kvar=1.0559288347164948 Phases=1 yearly=res_kw_1160_pu

New Load.load_p1ulv1277_2 conn=wye bus1=p1ulv1277.2 kV=0.12 Vminpu=0.8 Vmaxpu=1.2 model=1 kW=4.889402611994926 kvar=1.0559288347164948 Phases=1 yearly=res_kw_1160_pu

New Load.load_p1ulv1279_1 conn=wye bus1=p1ulv1279.1 kV=0.12 Vminpu=0.8 Vmaxpu=1.2 model=1 kW=5.947053638705014 kvar=1.2332751328813323 Phases=1 yearly=res_kw_245_pu

New Load.load_p1ulv1279_2 conn=wye bus1=p1ulv1279.2 kV=0.12 Vminpu=0.8 Vmaxpu=1.2 model=1 kW=5.947053638705014 kvar=1.2332751328813323 Phases=1 yearly=res_kw_245_pu

New Load.load_p1ulv1282_1 conn=wye bus1=p1ulv1282.1 kV=0.12 Vminpu=0.8 Vmaxpu=1.2 model=1 kW=6.897997484512368 kvar=1.5073573946072503 Phases=1 yearly=res_kw_40_pu

New Load.load_p1ulv1282_2 conn=wye bus1=p1ulv1282.2 kV=0.12 Vminpu=0.8 Vmaxpu=1.2 model=1 kW=6.897997484512368 kvar=1.5073573946072503 Phases=1 yearly=res_kw_40_pu

New Load.load_p1ulv4751_1 conn=wye bus1=p1ulv4751.1 kV=0.12 Vminpu=0.8 Vmaxpu=1.2 model=1 kW=3.8029744718879392 kvar=1.1462670306842289 Phases=1 yearly=res_kw_263_pu

New Load.load_p1ulv4751_2 conn=wye bus1=p1ulv4751.2 kV=0.12 Vminpu=0.8 Vmaxpu=1.2 model=1 kW=3.8029744718879392 kvar=1.1462670306842289 Phases=1 yearly=res_kw_263_pu

New Load.load_p1ulv5887_1 conn=wye bus1=p1ulv5887.1 kV=0.12 Vminpu=0.8 Vmaxpu=1.2 model=1 kW=6.897997484512368 kvar=1.5073573946072503 Phases=1 yearly=res_kw_40_pu

New Load.load_p1ulv5887_2 conn=wye bus1=p1ulv5887.2 kV=0.12 Vminpu=0.8 Vmaxpu=1.2 model=1 kW=6.897997484512368 kvar=1.5073573946072503 Phases=1 yearly=res_kw_40_pu

New Load.load_p1ulv5888_1 conn=wye bus1=p1ulv5888.1 kV=0.12 Vminpu=0.8 Vmaxpu=1.2 model=1 kW=6.509851554537701 kvar=1.8030128852474767 Phases=1 yearly=res_kw_959_pu

New Load.load_p1ulv5888_2 conn=wye bus1=p1ulv5888.2 kV=0.12 Vminpu=0.8 Vmaxpu=1.2 model=1 kW=6.509851554537701 kvar=1.8030128852474767 Phases=1 yearly=res_kw_959_pu

New Load.load_p1ulv5895_1 conn=wye bus1=p1ulv5895.1 kV=0.12 Vminpu=0.8 Vmaxpu=1.2 model=1 kW=3.8748715750127736 kvar=1.5614372175332516 Phases=1 yearly=res_kw_517_pu

New Load.load_p1ulv5895_2 conn=wye bus1=p1ulv5895.2 kV=0.12 Vminpu=0.8 Vmaxpu=1.2 model=1 kW=3.8748715750127736 kvar=1.5614372175332516 Phases=1 yearly=res_kw_517_pu

New Load.load_p1ulv5902_1 conn=wye bus1=p1ulv5902.1 kV=0.12 Vminpu=0.8 Vmaxpu=1.2 model=1 kW=4.889402611994926 kvar=1.0559288347164948 Phases=1 yearly=res_kw_1160_pu

New Load.load_p1ulv5902_2 conn=wye bus1=p1ulv5902.2 kV=0.12 Vminpu=0.8 Vmaxpu=1.2 model=1 kW=4.889402611994926 kvar=1.0559288347164948 Phases=1 yearly=res_kw_1160_pu
