New Load.load_p1ulv1288 conn=wye bus1=p1ulv1288.1.2.3 kV=0.48 Vminpu=0.8 Vmaxpu=1.2 model=1 kW=102.83620489813865 kvar=36.81420938044198 Phases=3 yearly=com_kw_14822_pu

New Load.load_p1ulv1391 conn=wye bus1=p1ulv1391.1.2.3 kV=0.48 Vminpu=0.8 Vmaxpu=1.2 model=1 kW=40.942981916270845 kvar=12.738632234961589 Phases=3 yearly=com_kw_14701_pu

New Load.load_p1ulv1403 conn=wye bus1=p1ulv1403.1.2.3 kV=0.48 Vminpu=0.8 Vmaxpu=1.2 model=1 kW=39.0072223129537 kvar=9.746263475181971 Phases=3 yearly=com_kw_14919_pu

New Load.load_p1ulv1404_1 conn=wye bus1=p1ulv1404.1 kV=0.12 Vminpu=0.8 Vmaxpu=1.2 model=1 kW=2.6553586809579963 kvar=0.7876053182917278 Phases=1 yearly=com_kw_13567_pu

New Load.load_p1ulv1404_2 conn=wye bus1=p1ulv1404.2 kV=0.12 Vminpu=0.8 Vmaxpu=1.2 model=1 kW=2.6553586809579963 kvar=0.7876053182917278 Phases=1 yearly=com_kw_13567_pu

New Load.load_p1ulv4346_1 conn=wye bus1=p1ulv4346.1 kV=0.12 Vminpu=0.8 Vmaxpu=1.2 model=1 kW=2.40000228705824 kvar=1.0173787262529668 Phases=1 yearly=res_kw_1205_pu

New Load.load_p1ulv4346_2 conn=wye bus1=p1ulv4346.2 kV=0.12 Vminpu=0.8 Vmaxpu=1.2 model=1 kW=2.40000228705824 kvar=1.0173787262529668 Phases=1 yearly=res_kw_1205_pu

New Load.load_p1ulv4357_1 conn=wye bus1=p1ulv4357.1 kV=0.12 Vminpu=0.8 Vmaxpu=1.2 model=1 kW=3.4468581914223817 kvar=1.1411197390818253 Phases=1 yearly=res_kw_250_pu

New Load.load_p1ulv4357_2 conn=wye bus1=p1ulv4357.2 kV=0.12 Vminpu=0.8 Vmaxpu=1.2 model=1 kW=3.4468581914223817 kvar=1.1411197390818253 Phases=1 yearly=res_kw_250_pu

New Load.load_p1ulv4359_1 conn=wye bus1=p1ulv4359.1 kV=0.12 Vminpu=0.8 Vmaxpu=1.2 model=1 kW=6.251204132654125 kvar=1.5952530188558731 Phases=1 yearly=res_kw_1248_pu

New Load.load_p1ulv4359_2 conn=wye bus1=p1ulv4359.2 kV=0.12 Vminpu=0.8 Vmaxpu=1.2 model=1 kW=6.251204132654125 kvar=1.5952530188558731 Phases=1 yearly=res_kw_1248_pu

New Load.load_p1ulv4360_1 conn=wye bus1=p1ulv4360.1 kV=0.12 Vminpu=0.8 Vmaxpu=1.2 model=1 kW=3.469755020859998 kvar=0.8941520384931253 Phases=1 yearly=res_kw_4_pu

New Load.load_p1ulv4360_2 conn=wye bus1=p1ulv4360.2 kV=0.12 Vminpu=0.8 Vmaxpu=1.2 model=1 kW=3.469755020859998 kvar=0.8941520384931253 Phases=1 yearly=res_kw_4_pu

New Load.load_p1ulv4361_1 conn=wye bus1=p1ulv4361.1 kV=0.12 Vminpu=0.8 Vmaxpu=1.2 model=1 kW=6.817994061838357 kvar=0.9100697715919355 Phases=1 yearly=res_kw_1099_pu

New Load.load_p1ulv4361_2 conn=wye bus1=p1ulv4361.2 kV=0.12 Vminpu=0.8 Vmaxpu=1.2 model=1 kW=6.817994061838357 kvar=0.9100697715919355 Phases=1 yearly=res_kw_1099_pu

New Load.load_p1ulv4365_1 conn=wye bus1=p1ulv4365.1 kV=0.12 Vminpu=0.8 Vmaxpu=1.2 model=1 kW=6.702223593657906 kvar=1.4906391030592414 Phases=1 yearly=res_kw_199_pu

New Load.load_p1ulv4365_2 conn=wye bus1=p1ulv4365.2 kV=0.12 Vminpu=0.8 Vmaxpu=1.2 model=1 kW=6.702223593657906 kvar=1.4906391030592414 Phases=1 yearly=res_kw_199_pu

New Load.load_p1ulv4367_1 conn=wye bus1=p1ulv4367.1 kV=0.12 Vminpu=0.8 Vmaxpu=1.2 model=1 kW=3.8748715750127736 kvar=1.5614372175332516 Phases=1 yearly=res_kw_517_pu

New Load.load_p1ulv4367_2 conn=wye bus1=p1ulv4367.2 kV=0.12 Vminpu=0.8 Vmaxpu=1.2 model=1 kW=3.8748715750127736 kvar=1.5614372175332516 Phases=1 yearly=res_kw_517_pu

New Load.load_p1ulv4369_1 conn=wye bus1=p1ulv4369.1 kV=0.12 Vminpu=0.8 Vmaxpu=1.2 model=1 kW=5.286987923172412 kvar=0.912918656895422 Phases=1 yearly=res_kw_75_pu

New Load.load_p1ulv4369_2 conn=wye bus1=p1ulv4369.2 kV=0.12 Vminpu=0.8 Vmaxpu=1.2 model=1 kW=5.286987923172412 kvar=0.912918656895422 Phases=1 yearly=res_kw_75_pu

New Load.load_p1ulv4374_1 conn=wye bus1=p1ulv4374.1 kV=0.12 Vminpu=0.8 Vmaxpu=1.2 model=1 kW=5.6593015111322105 kvar=1.2761251920573724 Phases=1 yearly=res_kw_324_pu

New Load.load_p1ulv4374_2 conn=wye bus1=p1ulv4374.2 kV=0.12 Vminpu=0.8 Vmaxpu=1.2 model=1 kW=5.6593015111322105 kvar=1.2761251920573724 Phases=1 yearly=res_kw_324_pu

New Load.load_p1ulv4375_1 conn=wye bus1=p1ulv4375.1 kV=0.12 Vminpu=0.8 Vmaxpu=1.2 model=1 kW=3.308494316062581 kvar=0.7969773391329138 Phases=1 yearly=res_kw_626_pu

New Load.load_p1ulv4375_2 conn=wye bus1=p1ulv4375.2 kV=0.12 Vminpu=0.8 Vmaxpu=1.2 model=1 kW=3.308494316062581 kvar=0.7969773391329138 Phases=1 yearly=res_kw_626_pu

New Load.load_p1umv8 conn=wye bus1=p1umv8.1.2.3 kV=12.47 Vminpu=0.8 Vmaxpu=1.2 model=1 kW=1502.827236937256 kvar=118.28940363707615 Phases=3 yearly=com_kw_14272_pu

New Load.load_p1ulv11208_1 conn=wye bus1=p1ulv11208.1 kV=0.12 Vminpu=0.8 Vmaxpu=1.2 model=1 kW=9.666699253995569 kvar=2.090221480167897 Phases=1 yearly=res_kw_46_pu

New Load.load_p1ulv11208_2 conn=wye bus1=p1ulv11208.2 kV=0.12 Vminpu=0.8 Vmaxpu=1.2 model=1 kW=9.666699253995569 kvar=2.090221480167897 Phases=1 yearly=res_kw_46_pu

New Load.load_p1ulv11209_1 conn=wye bus1=p1ulv11209.1 kV=0.12 Vminpu=0.8 Vmaxpu=1.2 model=1 kW=5.723135606665604 kvar=1.5038194991101048 Phases=1 yearly=res_kw_1228_pu

New Load.load_p1ulv11209_2 conn=wye bus1=p1ulv11209.2 kV=0.12 Vminpu=0.8 Vmaxpu=1.2 model=1 kW=5.723135606665604 kvar=1.5038194991101048 Phases=1 yearly=res_kw_1228_pu

New Load.load_p1ulv11210_1 conn=wye bus1=p1ulv11210.1 kV=0.12 Vminpu=0.8 Vmaxpu=1.2 model=1 kW=7.7578735794910925 kvar=1.9049941012910125 Phases=1 yearly=res_kw_863_pu

New Load.load_p1ulv11210_2 conn=wye bus1=p1ulv11210.2 kV=0.12 Vminpu=0.8 Vmaxpu=1.2 model=1 kW=7.7578735794910925 kvar=1.9049941012910125 Phases=1 yearly=res_kw_863_pu

New Load.load_p1ulv11211_1 conn=wye bus1=p1ulv11211.1 kV=0.12 Vminpu=0.8 Vmaxpu=1.2 model=1 kW=6.139488924452324 kvar=1.0282575631325632 Phases=1 yearly=res_kw_421_pu

New Load.load_p1ulv11211_2 conn=wye bus1=p1ulv11211.2 kV=0.12 Vminpu=0.8 Vmaxpu=1.2 model=1 kW=6.139488924452324 kvar=1.0282575631325632 Phases=1 yearly=res_kw_421_pu

New Load.load_p1ulv11212_1 conn=wye bus1=p1ulv11212.1 kV=0.12 Vminpu=0.8 Vmaxpu=1.2 model=1 kW=2.623267981089487 kvar=1.212519304398851 Phases=1 yearly=res_kw_452_pu

New Load.load_p1ulv11212_2 conn=wye bus1=p1ulv11212.2 kV=0.12 Vminpu=0.8 Vmaxpu=1.2 model=1 kW=2.623267981089487 kvar=1.212519304398851 Phases=1 yearly=res_kw_452_pu

New Load.load_p1ulv11213_1 conn=wye bus1=p1ulv11213.1 kV=0.12 Vminpu=0.8 Vmaxpu=1.2 model=1 kW=2.4402285312138985 kvar=0.9342273883677934 Phases=1 yearly=res_kw_409_pu

New Load.load_p1ulv11213_2 conn=wye bus1=p1ulv11213.2 kV=0.12 Vminpu=0.8 Vmaxpu=1.2 model=1 kW=2.4402285312138985 kvar=0.9342273883677934 Phases=1 yearly=res_kw_409_pu

New Load.load_p1ulv11214_1 conn=wye bus1=p1ulv11214.1 kV=0.12 Vminpu=0.8 Vmaxpu=1.2 model=1 kW=9.666699253995569 kvar=2.090221480167897 Phases=1 yearly=res_kw_46_pu

New Load.load_p1ulv11214_2 conn=wye bus1=p1ulv11214.2 kV=0.12 Vminpu=0.8 Vmaxpu=1.2 model=1 kW=9.666699253995569 kvar=2.090221480167897 Phases=1 yearly=res_kw_46_pu

New Load.load_p1ulv11215_1 conn=wye bus1=p1ulv11215.1 kV=0.12 Vminpu=0.8 Vmaxpu=1.2 model=1 kW=7.259772519581312 kvar=1.3210086815250959 Phases=1 yearly=res_kw_128_pu

New Load.load_p1ulv11215_2 conn=wye bus1=p1ulv11215.2 kV=0.12 Vminpu=0.8 Vmaxpu=1.2 model=1 kW=7.259772519581312 kvar=1.3210086815250959 Phases=1 yearly=res_kw_128_pu

New Load.load_p1ulv11216_1 conn=wye bus1=p1ulv11216.1 kV=0.12 Vminpu=0.8 Vmaxpu=1.2 model=1 kW=13.793674087523804 kvar=0.8506323916315093 Phases=1 yearly=com_kw_14989_pu

New Load.load_p1ulv11216_2 conn=wye bus1=p1ulv11216.2 kV=0.12 Vminpu=0.8 Vmaxpu=1.2 model=1 kW=13.793674087523804 kvar=0.8506323916315093 Phases=1 yearly=com_kw_14989_pu

New Load.load_p1ulv11217_1 conn=wye bus1=p1ulv11217.1 kV=0.12 Vminpu=0.8 Vmaxpu=1.2 model=1 kW=4.78815623948431 kvar=1.2110296754961107 Phases=1 yearly=res_kw_842_pu

New Load.load_p1ulv11217_2 conn=wye bus1=p1ulv11217.2 kV=0.12 Vminpu=0.8 Vmaxpu=1.2 model=1 kW=4.78815623948431 kvar=1.2110296754961107 Phases=1 yearly=res_kw_842_pu

New Load.load_p1ulv11218_1 conn=wye bus1=p1ulv11218.1 kV=0.12 Vminpu=0.8 Vmaxpu=1.2 model=1 kW=3.6844020253442458 kvar=1.4451491397155931 Phases=1 yearly=res_kw_1258_pu

New Load.load_p1ulv11218_2 conn=wye bus1=p1ulv11218.2 kV=0.12 Vminpu=0.8 Vmaxpu=1.2 model=1 kW=3.6844020253442458 kvar=1.4451491397155931 Phases=1 yearly=res_kw_1258_pu

New Load.load_p1ulv11219_1 conn=wye bus1=p1ulv11219.1 kV=0.12 Vminpu=0.8 Vmaxpu=1.2 model=1 kW=4.817618468644212 kvar=1.1350426223715635 Phases=1 yearly=res_kw_843_pu

New Load.load_p1ulv11219_2 conn=wye bus1=p1ulv11219.2 kV=0.12 Vminpu=0.8 Vmaxpu=1.2 model=1 kW=4.817618468644212 kvar=1.1350426223715635 Phases=1 yearly=res_kw_843_pu

New Load.load_p1ulv11220_1 conn=wye bus1=p1ulv11220.1 kV=0.12 Vminpu=0.8 Vmaxpu=1.2 model=1 kW=3.8748715750127736 kvar=1.5614372175332516 Phases=1 yearly=res_kw_517_pu

New Load.load_p1ulv11220_2 conn=wye bus1=p1ulv11220.2 kV=0.12 Vminpu=0.8 Vmaxpu=1.2 model=1 kW=3.8748715750127736 kvar=1.5614372175332516 Phases=1 yearly=res_kw_517_pu

New Load.load_p1ulv11221_1 conn=wye bus1=p1ulv11221.1 kV=0.12 Vminpu=0.8 Vmaxpu=1.2 model=1 kW=11.506702661284509 kvar=3.22329926547824 Phases=1 yearly=res_kw_231_pu

New Load.load_p1ulv11221_2 conn=wye bus1=p1ulv11221.2 kV=0.12 Vminpu=0.8 Vmaxpu=1.2 model=1 kW=11.506702661284509 kvar=3.22329926547824 Phases=1 yearly=res_kw_231_pu

New Load.load_p1ulv11222_1 conn=wye bus1=p1ulv11222.1 kV=0.12 Vminpu=0.8 Vmaxpu=1.2 model=1 kW=2.9178485115923896 kvar=1.0715119122844614 Phases=1 yearly=res_kw_1149_pu

New Load.load_p1ulv11222_2 conn=wye bus1=p1ulv11222.2 kV=0.12 Vminpu=0.8 Vmaxpu=1.2 model=1 kW=2.9178485115923896 kvar=1.0715119122844614 Phases=1 yearly=res_kw_1149_pu

New Load.load_p1ulv11223_1 conn=wye bus1=p1ulv11223.1 kV=0.12 Vminpu=0.8 Vmaxpu=1.2 model=1 kW=6.007202613688192 kvar=1.5186407953688474 Phases=1 yearly=res_kw_20_pu

New Load.load_p1ulv11223_2 conn=wye bus1=p1ulv11223.2 kV=0.12 Vminpu=0.8 Vmaxpu=1.2 model=1 kW=6.007202613688192 kvar=1.5186407953688474 Phases=1 yearly=res_kw_20_pu

New Load.load_p1ulv11224_1 conn=wye bus1=p1ulv11224.1 kV=0.12 Vminpu=0.8 Vmaxpu=1.2 model=1 kW=10.375628907780863 kvar=4.616486224330442 Phases=1 yearly=res_kw_1267_pu

New Load.load_p1ulv11224_2 conn=wye bus1=p1ulv11224.2 kV=0.12 Vminpu=0.8 Vmaxpu=1.2 model=1 kW=10.375628907780863 kvar=4.616486224330442 Phases=1 yearly=res_kw_1267_pu

New Load.load_p1ulv11225_1 conn=wye bus1=p1ulv11225.1 kV=0.12 Vminpu=0.8 Vmaxpu=1.2 model=1 kW=4.78815623948431 kvar=1.2110296754961107 Phases=1 yearly=res_kw_842_pu

New Load.load_p1ulv11225_2 conn=wye bus1=p1ulv11225.2 kV=0.12 Vminpu=0.8 Vmaxpu=1.2 model=1 kW=4.78815623948431 kvar=1.2110296754961107 Phases=1 yearly=res_kw_842_pu

New Load.load_p1ulv11226_1 conn=wye bus1=p1ulv11224.1 kV=0.12 Vminpu=0.8 Vmaxpu=1.2 model=1 kW=7.7578735794910925 kvar=1.9049941012910125 Phases=1 yearly=res_kw_863_pu

New Load.load_p1ulv11226_2 conn=wye bus1=p1ulv11224.2 kV=0.12 Vminpu=0.8 Vmaxpu=1.2 model=1 kW=7.7578735794910925 kvar=1.9049941012910125 Phases=1 yearly=res_kw_863_pu

New Load.load_p1ulv11227_1 conn=wye bus1=p1ulv11227.1 kV=0.12 Vminpu=0.8 Vmaxpu=1.2 model=1 kW=3.8029744718879392 kvar=1.1462670306842289 Phases=1 yearly=res_kw_263_pu

New Load.load_p1ulv11227_2 conn=wye bus1=p1ulv11227.2 kV=0.12 Vminpu=0.8 Vmaxpu=1.2 model=1 kW=3.8029744718879392 kvar=1.1462670306842289 Phases=1 yearly=res_kw_263_pu

New Load.load_p1ulv11228_1 conn=wye bus1=p1ulv11228.1 kV=0.12 Vminpu=0.8 Vmaxpu=1.2 model=1 kW=7.904283676305736 kvar=2.30454106674724 Phases=1 yearly=com_kw_13123_pu

New Load.load_p1ulv11228_2 conn=wye bus1=p1ulv11228.2 kV=0.12 Vminpu=0.8 Vmaxpu=1.2 model=1 kW=7.904283676305736 kvar=2.30454106674724 Phases=1 yearly=com_kw_13123_pu

New Load.load_p1ulv11229_1 conn=wye bus1=p1ulv11229.1 kV=0.12 Vminpu=0.8 Vmaxpu=1.2 model=1 kW=4.78815623948431 kvar=1.2110296754961107 Phases=1 yearly=res_kw_842_pu

New Load.load_p1ulv11229_2 conn=wye bus1=p1ulv11229.2 kV=0.12 Vminpu=0.8 Vmaxpu=1.2 model=1 kW=4.78815623948431 kvar=1.2110296754961107 Phases=1 yearly=res_kw_842_pu

New Load.load_p1ulv11230_1 conn=wye bus1=p1ulv11230.1 kV=0.12 Vminpu=0.8 Vmaxpu=1.2 model=1 kW=4.78815623948431 kvar=1.2110296754961107 Phases=1 yearly=res_kw_842_pu

New Load.load_p1ulv11230_2 conn=wye bus1=p1ulv11230.2 kV=0.12 Vminpu=0.8 Vmaxpu=1.2 model=1 kW=4.78815623948431 kvar=1.2110296754961107 Phases=1 yearly=res_kw_842_pu

New Load.load_p1ulv11231_1 conn=wye bus1=p1ulv11231.1 kV=0.12 Vminpu=0.8 Vmaxpu=1.2 model=1 kW=3.469521951913567 kvar=0.9490620687569232 Phases=1 yearly=res_kw_825_pu

New Load.load_p1ulv11231_2 conn=wye bus1=p1ulv11231.2 kV=0.12 Vminpu=0.8 Vmaxpu=1.2 model=1 kW=3.469521951913567 kvar=0.9490620687569232 Phases=1 yearly=res_kw_825_pu

New Load.load_p1ulv11232_1 conn=wye bus1=p1ulv11232.1 kV=0.12 Vminpu=0.8 Vmaxpu=1.2 model=1 kW=3.3701610259235064 kvar=1.065454990641787 Phases=1 yearly=res_kw_1037_pu

New Load.load_p1ulv11232_2 conn=wye bus1=p1ulv11232.2 kV=0.12 Vminpu=0.8 Vmaxpu=1.2 model=1 kW=3.3701610259235064 kvar=1.065454990641787 Phases=1 yearly=res_kw_1037_pu

New Load.load_p1ulv11233_1 conn=wye bus1=p1ulv11233.1 kV=0.12 Vminpu=0.8 Vmaxpu=1.2 model=1 kW=2.1376631749204993 kvar=0.6218033466021168 Phases=1 yearly=res_kw_93_pu

New Load.load_p1ulv11233_2 conn=wye bus1=p1ulv11233.2 kV=0.12 Vminpu=0.8 Vmaxpu=1.2 model=1 kW=2.1376631749204993 kvar=0.6218033466021168 Phases=1 yearly=res_kw_93_pu

New Load.load_p1ulv11235_1 conn=wye bus1=p1ulv11235.1 kV=0.12 Vminpu=0.8 Vmaxpu=1.2 model=1 kW=3.4468581914223817 kvar=1.1411197390818253 Phases=1 yearly=res_kw_250_pu

New Load.load_p1ulv11235_2 conn=wye bus1=p1ulv11235.2 kV=0.12 Vminpu=0.8 Vmaxpu=1.2 model=1 kW=3.4468581914223817 kvar=1.1411197390818253 Phases=1 yearly=res_kw_250_pu

New Load.load_p1ulv11239_1 conn=wye bus1=p1ulv11239.1 kV=0.12 Vminpu=0.8 Vmaxpu=1.2 model=1 kW=4.889402611994926 kvar=1.0559288347164948 Phases=1 yearly=res_kw_1160_pu

New Load.load_p1ulv11239_2 conn=wye bus1=p1ulv11239.2 kV=0.12 Vminpu=0.8 Vmaxpu=1.2 model=1 kW=4.889402611994926 kvar=1.0559288347164948 Phases=1 yearly=res_kw_1160_pu

New Load.load_p1ulv11241_1 conn=wye bus1=p1ulv11241.1 kV=0.12 Vminpu=0.8 Vmaxpu=1.2 model=1 kW=7.838257818376183 kvar=1.7746998372735319 Phases=1 yearly=com_kw_12884_pu

New Load.load_p1ulv11241_2 conn=wye bus1=p1ulv11241.2 kV=0.12 Vminpu=0.8 Vmaxpu=1.2 model=1 kW=7.838257818376183 kvar=1.7746998372735319 Phases=1 yearly=com_kw_12884_pu

New Load.load_p1ulv11242_1 conn=wye bus1=p1ulv11242.1 kV=0.12 Vminpu=0.8 Vmaxpu=1.2 model=1 kW=11.457721527492426 kvar=1.3801854390555242 Phases=1 yearly=res_kw_861_pu

New Load.load_p1ulv11242_2 conn=wye bus1=p1ulv11242.2 kV=0.12 Vminpu=0.8 Vmaxpu=1.2 model=1 kW=11.457721527492426 kvar=1.3801854390555242 Phases=1 yearly=res_kw_861_pu

New Load.load_p1ulv11249_1 conn=wye bus1=p1ulv11249.1 kV=0.12 Vminpu=0.8 Vmaxpu=1.2 model=1 kW=8.443451253332066 kvar=2.1774315068431793 Phases=1 yearly=com_kw_14194_pu

New Load.load_p1ulv11249_2 conn=wye bus1=p1ulv11249.2 kV=0.12 Vminpu=0.8 Vmaxpu=1.2 model=1 kW=8.443451253332066 kvar=2.1774315068431793 Phases=1 yearly=com_kw_14194_pu

New Load.load_p1ulv11250_1 conn=wye bus1=p1ulv11250.1 kV=0.12 Vminpu=0.8 Vmaxpu=1.2 model=1 kW=6.817994061838357 kvar=0.9100697715919355 Phases=1 yearly=res_kw_1099_pu

New Load.load_p1ulv11250_2 conn=wye bus1=p1ulv11250.2 kV=0.12 Vminpu=0.8 Vmaxpu=1.2 model=1 kW=6.817994061838357 kvar=0.9100697715919355 Phases=1 yearly=res_kw_1099_pu

New Load.load_p1ulv11251_1 conn=wye bus1=p1ulv11251.1 kV=0.12 Vminpu=0.8 Vmaxpu=1.2 model=1 kW=8.01962100453296 kvar=1.9011506674959975 Phases=1 yearly=res_kw_380_pu

New Load.load_p1ulv11251_2 conn=wye bus1=p1ulv11251.2 kV=0.12 Vminpu=0.8 Vmaxpu=1.2 model=1 kW=8.01962100453296 kvar=1.9011506674959975 Phases=1 yearly=res_kw_380_pu

New Load.load_p1ulv11253_1 conn=wye bus1=p1ulv11251.1 kV=0.12 Vminpu=0.8 Vmaxpu=1.2 model=1 kW=5.868538204849821 kvar=1.7737241160039159 Phases=1 yearly=com_kw_13795_pu

New Load.load_p1ulv11253_2 conn=wye bus1=p1ulv11251.2 kV=0.12 Vminpu=0.8 Vmaxpu=1.2 model=1 kW=5.868538204849821 kvar=1.7737241160039159 Phases=1 yearly=com_kw_13795_pu

New Load.load_p1ulv11254_1 conn=wye bus1=p1ulv11254.1 kV=0.12 Vminpu=0.8 Vmaxpu=1.2 model=1 kW=19.900976347202917 kvar=3.994514376406619 Phases=1 yearly=res_kw_13_pu

New Load.load_p1ulv11254_2 conn=wye bus1=p1ulv11254.2 kV=0.12 Vminpu=0.8 Vmaxpu=1.2 model=1 kW=19.900976347202917 kvar=3.994514376406619 Phases=1 yearly=res_kw_13_pu

New Load.load_p1ulv11255_1 conn=wye bus1=p1ulv11255.1 kV=0.12 Vminpu=0.8 Vmaxpu=1.2 model=1 kW=6.168408370727534 kvar=1.492740670010399 Phases=1 yearly=res_kw_1162_pu

New Load.load_p1ulv11255_2 conn=wye bus1=p1ulv11255.2 kV=0.12 Vminpu=0.8 Vmaxpu=1.2 model=1 kW=6.168408370727534 kvar=1.492740670010399 Phases=1 yearly=res_kw_1162_pu

New Load.load_p1ulv11256_1 conn=wye bus1=p1ulv11256.1 kV=0.12 Vminpu=0.8 Vmaxpu=1.2 model=1 kW=2.252586941983099 kvar=1.0135983600233158 Phases=1 yearly=res_kw_853_pu

New Load.load_p1ulv11256_2 conn=wye bus1=p1ulv11256.2 kV=0.12 Vminpu=0.8 Vmaxpu=1.2 model=1 kW=2.252586941983099 kvar=1.0135983600233158 Phases=1 yearly=res_kw_853_pu

New Load.load_p1ulv11257_1 conn=wye bus1=p1ulv11257.1 kV=0.12 Vminpu=0.8 Vmaxpu=1.2 model=1 kW=2.6241521841182514 kvar=0.8429304779950015 Phases=1 yearly=res_kw_33_pu

New Load.load_p1ulv11257_2 conn=wye bus1=p1ulv11257.2 kV=0.12 Vminpu=0.8 Vmaxpu=1.2 model=1 kW=2.6241521841182514 kvar=0.8429304779950015 Phases=1 yearly=res_kw_33_pu

New Load.load_p1ulv11258_1 conn=wye bus1=p1ulv11258.1 kV=0.12 Vminpu=0.8 Vmaxpu=1.2 model=1 kW=6.817994061838357 kvar=0.9100697715919355 Phases=1 yearly=res_kw_1099_pu

New Load.load_p1ulv11258_2 conn=wye bus1=p1ulv11258.2 kV=0.12 Vminpu=0.8 Vmaxpu=1.2 model=1 kW=6.817994061838357 kvar=0.9100697715919355 Phases=1 yearly=res_kw_1099_pu

New Load.load_p1ulv11259_1 conn=wye bus1=p1ulv11259.1 kV=0.12 Vminpu=0.8 Vmaxpu=1.2 model=1 kW=4.78815623948431 kvar=1.2110296754961107 Phases=1 yearly=res_kw_842_pu

New Load.load_p1ulv11259_2 conn=wye bus1=p1ulv11259.2 kV=0.12 Vminpu=0.8 Vmaxpu=1.2 model=1 kW=4.78815623948431 kvar=1.2110296754961107 Phases=1 yearly=res_kw_842_pu

New Load.load_p1ulv11828 conn=wye bus1=p1ulv11828.1.2.3 kV=0.48 Vminpu=0.8 Vmaxpu=1.2 model=1 kW=102.83620489813865 kvar=36.81420938044198 Phases=3 yearly=com_kw_14822_pu

New Load.load_p1ulv11831_1 conn=wye bus1=p1ulv11831.1 kV=0.12 Vminpu=0.8 Vmaxpu=1.2 model=1 kW=3.469521951913567 kvar=0.9490620687569232 Phases=1 yearly=res_kw_825_pu

New Load.load_p1ulv11831_2 conn=wye bus1=p1ulv11831.2 kV=0.12 Vminpu=0.8 Vmaxpu=1.2 model=1 kW=3.469521951913567 kvar=0.9490620687569232 Phases=1 yearly=res_kw_825_pu

New Load.load_p1ulv26035_1 conn=wye bus1=p1ulv26035.1 kV=0.12 Vminpu=0.8 Vmaxpu=1.2 model=1 kW=7.94979939607588 kvar=2.419170916512242 Phases=1 yearly=com_kw_14583_pu

New Load.load_p1ulv26035_2 conn=wye bus1=p1ulv26035.2 kV=0.12 Vminpu=0.8 Vmaxpu=1.2 model=1 kW=7.94979939607588 kvar=2.419170916512242 Phases=1 yearly=com_kw_14583_pu

New Load.load_p1ulv26100_1 conn=wye bus1=p1ulv26100.1 kV=0.12 Vminpu=0.8 Vmaxpu=1.2 model=1 kW=4.47171304939181 kvar=1.1676103385976955 Phases=1 yearly=res_kw_627_pu

New Load.load_p1ulv26100_2 conn=wye bus1=p1ulv26100.2 kV=0.12 Vminpu=0.8 Vmaxpu=1.2 model=1 kW=4.47171304939181 kvar=1.1676103385976955 Phases=1 yearly=res_kw_627_pu

New Load.load_p1ulv26162_1 conn=wye bus1=p1ulv26162.1 kV=0.12 Vminpu=0.8 Vmaxpu=1.2 model=1 kW=3.6844020253442458 kvar=1.4451491397155931 Phases=1 yearly=res_kw_1258_pu

New Load.load_p1ulv26162_2 conn=wye bus1=p1ulv26162.2 kV=0.12 Vminpu=0.8 Vmaxpu=1.2 model=1 kW=3.6844020253442458 kvar=1.4451491397155931 Phases=1 yearly=res_kw_1258_pu

New Load.load_p1ulv26299_1 conn=wye bus1=p1ulv26299.1 kV=0.12 Vminpu=0.8 Vmaxpu=1.2 model=1 kW=6.251204132654125 kvar=1.5952530188558731 Phases=1 yearly=res_kw_1248_pu

New Load.load_p1ulv26299_2 conn=wye bus1=p1ulv26299.2 kV=0.12 Vminpu=0.8 Vmaxpu=1.2 model=1 kW=6.251204132654125 kvar=1.5952530188558731 Phases=1 yearly=res_kw_1248_pu

New Load.load_p1ulv26368_1 conn=wye bus1=p1ulv26368.1 kV=0.12 Vminpu=0.8 Vmaxpu=1.2 model=1 kW=3.8029744718879392 kvar=1.1462670306842289 Phases=1 yearly=res_kw_263_pu

New Load.load_p1ulv26368_2 conn=wye bus1=p1ulv26368.2 kV=0.12 Vminpu=0.8 Vmaxpu=1.2 model=1 kW=3.8029744718879392 kvar=1.1462670306842289 Phases=1 yearly=res_kw_263_pu

New Load.load_p1ulv26371 conn=wye bus1=p1ulv26371.1.2.3 kV=0.48 Vminpu=0.8 Vmaxpu=1.2 model=1 kW=90.84575360320908 kvar=22.30335579553028 Phases=3 yearly=com_kw_13363_pu

New Load.load_p1umv39 conn=wye bus1=p1umv39.1.2.3 kV=12.47 Vminpu=0.8 Vmaxpu=1.2 model=1 kW=2567.1643842471567 kvar=700.1372522288214 Phases=3 yearly=com_kw_15017_pu

New Load.load_p1ulv26513_1 conn=wye bus1=p1ulv26513.1 kV=0.12 Vminpu=0.8 Vmaxpu=1.2 model=1 kW=6.8172110576108205 kvar=1.958919210380233 Phases=1 yearly=com_kw_14610_pu

New Load.load_p1ulv26513_2 conn=wye bus1=p1ulv26513.2 kV=0.12 Vminpu=0.8 Vmaxpu=1.2 model=1 kW=6.8172110576108205 kvar=1.958919210380233 Phases=1 yearly=com_kw_14610_pu

New Load.load_p1ulv26584 conn=wye bus1=p1ulv26584.1.2.3 kV=0.48 Vminpu=0.8 Vmaxpu=1.2 model=1 kW=18.97699733312325 kvar=5.052788558727019 Phases=3 yearly=com_kw_14097_pu

New Load.load_p1ulv26671_1 conn=wye bus1=p1ulv26671.1 kV=0.12 Vminpu=0.8 Vmaxpu=1.2 model=1 kW=6.139488924452324 kvar=1.0282575631325632 Phases=1 yearly=res_kw_421_pu

New Load.load_p1ulv26671_2 conn=wye bus1=p1ulv26671.2 kV=0.12 Vminpu=0.8 Vmaxpu=1.2 model=1 kW=6.139488924452324 kvar=1.0282575631325632 Phases=1 yearly=res_kw_421_pu

New Load.load_p1ulv26733_1 conn=wye bus1=p1ulv26733.1 kV=0.12 Vminpu=0.8 Vmaxpu=1.2 model=1 kW=7.935406333880378 kvar=2.9734713630513365 Phases=1 yearly=res_kw_272_pu

New Load.load_p1ulv26733_2 conn=wye bus1=p1ulv26733.2 kV=0.12 Vminpu=0.8 Vmaxpu=1.2 model=1 kW=7.935406333880378 kvar=2.9734713630513365 Phases=1 yearly=res_kw_272_pu

New Load.load_p1ulv26890_1 conn=wye bus1=p1ulv26890.1 kV=0.12 Vminpu=0.8 Vmaxpu=1.2 model=1 kW=2.7964925670698424 kvar=0.800653953636514 Phases=1 yearly=com_kw_13842_pu

New Load.load_p1ulv26890_2 conn=wye bus1=p1ulv26890.2 kV=0.12 Vminpu=0.8 Vmaxpu=1.2 model=1 kW=2.7964925670698424 kvar=0.800653953636514 Phases=1 yearly=com_kw_13842_pu

New Load.load_p1ulv26962_1 conn=wye bus1=p1ulv26962.1 kV=0.12 Vminpu=0.8 Vmaxpu=1.2 model=1 kW=4.8861141847383 kvar=1.2417687859549835 Phases=1 yearly=res_kw_549_pu

New Load.load_p1ulv26962_2 conn=wye bus1=p1ulv26962.2 kV=0.12 Vminpu=0.8 Vmaxpu=1.2 model=1 kW=4.8861141847383 kvar=1.2417687859549835 Phases=1 yearly=res_kw_549_pu

New Load.load_p1umv40 conn=wye bus1=p1umv40.1.2.3 kV=12.47 Vminpu=0.8 Vmaxpu=1.2 model=1 kW=2092.5461330421726 kvar=121.21031878072554 Phases=3 yearly=com_kw_15149_pu

New Load.load_p1ulv27023_1 conn=wye bus1=p1ulv27023.1 kV=0.12 Vminpu=0.8 Vmaxpu=1.2 model=1 kW=5.38134495181954 kvar=1.353471751109648 Phases=1 yearly=com_kw_14185_pu

New Load.load_p1ulv27023_2 conn=wye bus1=p1ulv27023.2 kV=0.12 Vminpu=0.8 Vmaxpu=1.2 model=1 kW=5.38134495181954 kvar=1.353471751109648 Phases=1 yearly=com_kw_14185_pu

New Load.load_p1ulv27034_1 conn=wye bus1=p1ulv27034.1 kV=0.12 Vminpu=0.8 Vmaxpu=1.2 model=1 kW=2.605021030189827 kvar=1.0007509371876184 Phases=1 yearly=res_kw_24_pu

New Load.load_p1ulv27034_2 conn=wye bus1=p1ulv27034.2 kV=0.12 Vminpu=0.8 Vmaxpu=1.2 model=1 kW=2.605021030189827 kvar=1.0007509371876184 Phases=1 yearly=res_kw_24_pu

New Load.load_p1ulv27102_1 conn=wye bus1=p1ulv27102.1 kV=0.12 Vminpu=0.8 Vmaxpu=1.2 model=1 kW=11.506702661284509 kvar=3.22329926547824 Phases=1 yearly=res_kw_231_pu

New Load.load_p1ulv27102_2 conn=wye bus1=p1ulv27102.2 kV=0.12 Vminpu=0.8 Vmaxpu=1.2 model=1 kW=11.506702661284509 kvar=3.22329926547824 Phases=1 yearly=res_kw_231_pu

New Load.load_p1ulv27104 conn=wye bus1=p1ulv27104.1.2.3 kV=0.48 Vminpu=0.8 Vmaxpu=1.2 model=1 kW=90.84575360320908 kvar=22.30335579553028 Phases=3 yearly=com_kw_13363_pu

New Load.load_p1ulv27279_1 conn=wye bus1=p1ulv27279.1 kV=0.12 Vminpu=0.8 Vmaxpu=1.2 model=1 kW=7.043069286653297 kvar=1.6434890414390042 Phases=1 yearly=res_kw_740_pu

New Load.load_p1ulv27279_2 conn=wye bus1=p1ulv27279.2 kV=0.12 Vminpu=0.8 Vmaxpu=1.2 model=1 kW=7.043069286653297 kvar=1.6434890414390042 Phases=1 yearly=res_kw_740_pu

New Load.load_p1ulv27346 conn=wye bus1=p1ulv27346.1.2.3 kV=0.48 Vminpu=0.8 Vmaxpu=1.2 model=1 kW=102.83620489813865 kvar=36.81420938044198 Phases=3 yearly=com_kw_14822_pu

New Load.load_p1ulv27815 conn=wye bus1=p1ulv27815.1.2.3 kV=0.48 Vminpu=0.8 Vmaxpu=1.2 model=1 kW=359.6894358959385 kvar=105.981216307442 Phases=3 yearly=com_kw_12814_pu

New Load.load_p1ulv27889_1 conn=wye bus1=p1ulv27889.1 kV=0.12 Vminpu=0.8 Vmaxpu=1.2 model=1 kW=6.484825325204597 kvar=1.6440419394084307 Phases=1 yearly=res_kw_1115_pu

New Load.load_p1ulv27889_2 conn=wye bus1=p1ulv27889.2 kV=0.12 Vminpu=0.8 Vmaxpu=1.2 model=1 kW=6.484825325204597 kvar=1.6440419394084307 Phases=1 yearly=res_kw_1115_pu

New Load.load_p1ulv27891_1 conn=wye bus1=p1ulv27891.1 kV=0.12 Vminpu=0.8 Vmaxpu=1.2 model=1 kW=6.817994061838357 kvar=0.9100697715919355 Phases=1 yearly=res_kw_1099_pu

New Load.load_p1ulv27891_2 conn=wye bus1=p1ulv27891.2 kV=0.12 Vminpu=0.8 Vmaxpu=1.2 model=1 kW=6.817994061838357 kvar=0.9100697715919355 Phases=1 yearly=res_kw_1099_pu

New Load.load_p1ulv27954_1 conn=wye bus1=p1ulv27954.1 kV=0.12 Vminpu=0.8 Vmaxpu=1.2 model=1 kW=4.78815623948431 kvar=1.2110296754961107 Phases=1 yearly=res_kw_842_pu

New Load.load_p1ulv27954_2 conn=wye bus1=p1ulv27954.2 kV=0.12 Vminpu=0.8 Vmaxpu=1.2 model=1 kW=4.78815623948431 kvar=1.2110296754961107 Phases=1 yearly=res_kw_842_pu

New Load.load_p1ulv28170_1 conn=wye bus1=p1ulv28170.1 kV=0.12 Vminpu=0.8 Vmaxpu=1.2 model=1 kW=4.78815623948431 kvar=1.2110296754961107 Phases=1 yearly=res_kw_842_pu

New Load.load_p1ulv28170_2 conn=wye bus1=p1ulv28170.2 kV=0.12 Vminpu=0.8 Vmaxpu=1.2 model=1 kW=4.78815623948431 kvar=1.2110296754961107 Phases=1 yearly=res_kw_842_pu

New Load.load_p1ulv28173_1 conn=wye bus1=p1ulv28173.1 kV=0.12 Vminpu=0.8 Vmaxpu=1.2 model=1 kW=3.469521951913567 kvar=0.9490620687569232 Phases=1 yearly=res_kw_825_pu

New Load.load_p1ulv28173_2 conn=wye bus1=p1ulv28173.2 kV=0.12 Vminpu=0.8 Vmaxpu=1.2 model=1 kW=3.469521951913567 kvar=0.9490620687569232 Phases=1 yearly=res_kw_825_pu

New Load.load_p1ulv28331 conn=wye bus1=p1ulv28331.1.2.3 kV=0.48 Vminpu=0.8 Vmaxpu=1.2 model=1 kW=39.0072223129537 kvar=9.746263475181971 Phases=3 yearly=com_kw_14919_pu

New Load.load_p1ulv28398_1 conn=wye bus1=p1ulv28398.1 kV=0.12 Vminpu=0.8 Vmaxpu=1.2 model=1 kW=5.436729579526792 kvar=1.2488470964899614 Phases=1 yearly=res_kw_454_pu

New Load.load_p1ulv28398_2 conn=wye bus1=p1ulv28398.2 kV=0.12 Vminpu=0.8 Vmaxpu=1.2 model=1 kW=5.436729579526792 kvar=1.2488470964899614 Phases=1 yearly=res_kw_454_pu

New Load.load_p1ulv28484_1 conn=wye bus1=p1ulv28484.1 kV=0.12 Vminpu=0.8 Vmaxpu=1.2 model=1 kW=6.251204132654125 kvar=1.5952530188558731 Phases=1 yearly=res_kw_1248_pu

New Load.load_p1ulv28484_2 conn=wye bus1=p1ulv28484.2 kV=0.12 Vminpu=0.8 Vmaxpu=1.2 model=1 kW=6.251204132654125 kvar=1.5952530188558731 Phases=1 yearly=res_kw_1248_pu

New Load.load_p1ulv28550_1 conn=wye bus1=p1ulv28550.1 kV=0.12 Vminpu=0.8 Vmaxpu=1.2 model=1 kW=11.506702661284509 kvar=3.22329926547824 Phases=1 yearly=res_kw_231_pu

New Load.load_p1ulv28550_2 conn=wye bus1=p1ulv28550.2 kV=0.12 Vminpu=0.8 Vmaxpu=1.2 model=1 kW=11.506702661284509 kvar=3.22329926547824 Phases=1 yearly=res_kw_231_pu

New Load.load_p1ulv28688_1 conn=wye bus1=p1ulv28688.1 kV=0.12 Vminpu=0.8 Vmaxpu=1.2 model=1 kW=6.224817813202313 kvar=1.7553010009693135 Phases=1 yearly=res_kw_710_pu

New Load.load_p1ulv28688_2 conn=wye bus1=p1ulv28688.2 kV=0.12 Vminpu=0.8 Vmaxpu=1.2 model=1 kW=6.224817813202313 kvar=1.7553010009693135 Phases=1 yearly=res_kw_710_pu

New Load.load_p1ulv28755 conn=wye bus1=p1ulv28755.1.2.3 kV=0.48 Vminpu=0.8 Vmaxpu=1.2 model=1 kW=20.34811553716727 kvar=4.467267472776305 Phases=3 yearly=com_kw_13526_pu

New Load.load_p1ulv28921_1 conn=wye bus1=p1ulv28921.1 kV=0.12 Vminpu=0.8 Vmaxpu=1.2 model=1 kW=5.436729579526792 kvar=1.2488470964899614 Phases=1 yearly=res_kw_454_pu

New Load.load_p1ulv28921_2 conn=wye bus1=p1ulv28921.2 kV=0.12 Vminpu=0.8 Vmaxpu=1.2 model=1 kW=5.436729579526792 kvar=1.2488470964899614 Phases=1 yearly=res_kw_454_pu

New Load.load_p1ulv28924_1 conn=wye bus1=p1ulv28924.1 kV=0.12 Vminpu=0.8 Vmaxpu=1.2 model=1 kW=5.436729579526792 kvar=1.2488470964899614 Phases=1 yearly=res_kw_454_pu

New Load.load_p1ulv28924_2 conn=wye bus1=p1ulv28924.2 kV=0.12 Vminpu=0.8 Vmaxpu=1.2 model=1 kW=5.436729579526792 kvar=1.2488470964899614 Phases=1 yearly=res_kw_454_pu

New Load.load_p1ulv29333_1 conn=wye bus1=p1ulv29333.1 kV=0.12 Vminpu=0.8 Vmaxpu=1.2 model=1 kW=3.789884331965197 kvar=1.0036576715582408 Phases=1 yearly=res_kw_670_pu

New Load.load_p1ulv29333_2 conn=wye bus1=p1ulv29333.2 kV=0.12 Vminpu=0.8 Vmaxpu=1.2 model=1 kW=3.789884331965197 kvar=1.0036576715582408 Phases=1 yearly=res_kw_670_pu

New Load.load_p1ulv29397_1 conn=wye bus1=p1ulv29397.1 kV=0.12 Vminpu=0.8 Vmaxpu=1.2 model=1 kW=2.40000228705824 kvar=1.0173787262529668 Phases=1 yearly=res_kw_1205_pu

New Load.load_p1ulv29397_2 conn=wye bus1=p1ulv29397.2 kV=0.12 Vminpu=0.8 Vmaxpu=1.2 model=1 kW=2.40000228705824 kvar=1.0173787262529668 Phases=1 yearly=res_kw_1205_pu

New Load.load_p1ulv29526_1 conn=wye bus1=p1ulv29526.1 kV=0.12 Vminpu=0.8 Vmaxpu=1.2 model=1 kW=5.436729579526792 kvar=1.2488470964899614 Phases=1 yearly=res_kw_454_pu

New Load.load_p1ulv29526_2 conn=wye bus1=p1ulv29526.2 kV=0.12 Vminpu=0.8 Vmaxpu=1.2 model=1 kW=5.436729579526792 kvar=1.2488470964899614 Phases=1 yearly=res_kw_454_pu

New Load.load_p1ulv29593_1 conn=wye bus1=p1ulv29593.1 kV=0.12 Vminpu=0.8 Vmaxpu=1.2 model=1 kW=6.2419949477893475 kvar=3.2518916743102033 Phases=1 yearly=res_kw_748_pu

New Load.load_p1ulv29593_2 conn=wye bus1=p1ulv29593.2 kV=0.12 Vminpu=0.8 Vmaxpu=1.2 model=1 kW=6.2419949477893475 kvar=3.2518916743102033 Phases=1 yearly=res_kw_748_pu

New Load.load_p1ulv29745_1 conn=wye bus1=p1ulv29745.1 kV=0.12 Vminpu=0.8 Vmaxpu=1.2 model=1 kW=5.436729579526792 kvar=1.2488470964899614 Phases=1 yearly=res_kw_454_pu

New Load.load_p1ulv29745_2 conn=wye bus1=p1ulv29745.2 kV=0.12 Vminpu=0.8 Vmaxpu=1.2 model=1 kW=5.436729579526792 kvar=1.2488470964899614 Phases=1 yearly=res_kw_454_pu
