New Load.load_p1ulv37_1 conn=wye bus1=p1ulv37.1 kV=0.12 Vminpu=0.8 Vmaxpu=1.2 model=1 kW=5.121080771859233 kvar=1.1807848049623457 Phases=1 yearly=res_kw_691_pu

New Load.load_p1ulv37_2 conn=wye bus1=p1ulv37.2 kV=0.12 Vminpu=0.8 Vmaxpu=1.2 model=1 kW=5.121080771859233 kvar=1.1807848049623457 Phases=1 yearly=res_kw_691_pu

New Load.load_p1ulv38_1 conn=wye bus1=p1ulv38.1 kV=0.12 Vminpu=0.8 Vmaxpu=1.2 model=1 kW=3.963001053413761 kvar=0.9410786890170905 Phases=1 yearly=res_kw_1256_pu

New Load.load_p1ulv38_2 conn=wye bus1=p1ulv38.2 kV=0.12 Vminpu=0.8 Vmaxpu=1.2 model=1 kW=3.963001053413761 kvar=0.9410786890170905 Phases=1 yearly=res_kw_1256_pu

New Load.load_p1ulv39_1 conn=wye bus1=p1ulv38.1 kV=0.12 Vminpu=0.8 Vmaxpu=1.2 model=1 kW=3.6844020253442458 kvar=1.4451491397155931 Phases=1 yearly=res_kw_1258_pu

New Load.load_p1ulv39_2 conn=wye bus1=p1ulv38.2 kV=0.12 Vminpu=0.8 Vmaxpu=1.2 model=1 kW=3.6844020253442458 kvar=1.4451491397155931 Phases=1 yearly=res_kw_1258_pu

New Load.load_p1ulv146_1 conn=wye bus1=p1ulv146.1 kV=0.12 Vminpu=0.8 Vmaxpu=1.2 model=1 kW=2.5047232020051142 kvar=0.6800922265265169 Phases=1 yearly=res_kw_162_pu

New Load.load_p1ulv146_2 conn=wye bus1=p1ulv146.2 kV=0.12 Vminpu=0.8 Vmaxpu=1.2 model=1 kW=2.5047232020051142 kvar=0.6800922265265169 Phases=1 yearly=res_kw_162_pu

New Load.load_p1ulv149_1 conn=wye bus1=p1ulv149.1 kV=0.12 Vminpu=0.8 Vmaxpu=1.2 model=1 kW=3.0502193323758338 kvar=0.7068547525403183 Phases=1 yearly=res_kw_407_pu

New Load.load_p1ulv149_2 conn=wye bus1=p1ulv149.2 kV=0.12 Vminpu=0.8 Vmaxpu=1.2 model=1 kW=3.0502193323758338 kvar=0.7068547525403183 Phases=1 yearly=res_kw_407_pu

New Load.load_p1ulv150_1 conn=wye bus1=p1ulv150.1 kV=0.12 Vminpu=0.8 Vmaxpu=1.2 model=1 kW=9.341738473663403 kvar=2.018548151169967 Phases=1 yearly=res_kw_504_pu

New Load.load_p1ulv150_2 conn=wye bus1=p1ulv150.2 kV=0.12 Vminpu=0.8 Vmaxpu=1.2 model=1 kW=9.341738473663403 kvar=2.018548151169967 Phases=1 yearly=res_kw_504_pu

New Load.load_p1ulv151_1 conn=wye bus1=p1ulv151.1 kV=0.12 Vminpu=0.8 Vmaxpu=1.2 model=1 kW=4.817618468644212 kvar=1.1350426223715635 Phases=1 yearly=res_kw_843_pu

New Load.load_p1ulv151_2 conn=wye bus1=p1ulv151.2 kV=0.12 Vminpu=0.8 Vmaxpu=1.2 model=1 kW=4.817618468644212 kvar=1.1350426223715635 Phases=1 yearly=res_kw_843_pu

New Load.load_p1ulv152_1 conn=wye bus1=p1ulv152.1 kV=0.12 Vminpu=0.8 Vmaxpu=1.2 model=1 kW=4.4719654544990375 kvar=1.0992469987144322 Phases=1 yearly=res_kw_1157_pu

New Load.load_p1ulv152_2 conn=wye bus1=p1ulv152.2 kV=0.12 Vminpu=0.8 Vmaxpu=1.2 model=1 kW=4.4719654544990375 kvar=1.0992469987144322 Phases=1 yearly=res_kw_1157_pu

New Load.load_p1ulv153 conn=wye bus1=p1ulv153.1.2.3 kV=0.48 Vminpu=0.8 Vmaxpu=1.2 model=1 kW=54.85131672153877 kvar=11.535069304572756 Phases=3 yearly=res_kw_796_pu

New Load.load_p1ulv155_1 conn=wye bus1=p1ulv155.1 kV=0.12 Vminpu=0.8 Vmaxpu=1.2 model=1 kW=9.341738473663403 kvar=2.018548151169967 Phases=1 yearly=res_kw_504_pu

New Load.load_p1ulv155_2 conn=wye bus1=p1ulv155.2 kV=0.12 Vminpu=0.8 Vmaxpu=1.2 model=1 kW=9.341738473663403 kvar=2.018548151169967 Phases=1 yearly=res_kw_504_pu

New Load.load_p1ulv156_1 conn=wye bus1=p1ulv156.1 kV=0.12 Vminpu=0.8 Vmaxpu=1.2 model=1 kW=2.6241521841182514 kvar=0.8429304779950015 Phases=1 yearly=res_kw_33_pu

New Load.load_p1ulv156_2 conn=wye bus1=p1ulv156.2 kV=0.12 Vminpu=0.8 Vmaxpu=1.2 model=1 kW=2.6241521841182514 kvar=0.8429304779950015 Phases=1 yearly=res_kw_33_pu

New Load.load_p1ulv1592_1 conn=wye bus1=p1ulv1592.1 kV=0.12 Vminpu=0.8 Vmaxpu=1.2 model=1 kW=3.469521951913567 kvar=0.9490620687569232 Phases=1 yearly=res_kw_825_pu

New Load.load_p1ulv1592_2 conn=wye bus1=p1ulv1592.2 kV=0.12 Vminpu=0.8 Vmaxpu=1.2 model=1 kW=3.469521951913567 kvar=0.9490620687569232 Phases=1 yearly=res_kw_825_pu

New Load.load_p1ulv1601_1 conn=wye bus1=p1ulv1601.1 kV=0.12 Vminpu=0.8 Vmaxpu=1.2 model=1 kW=8.020736002000627 kvar=0.8077597125403054 Phases=1 yearly=res_kw_411_pu

New Load.load_p1ulv1601_2 conn=wye bus1=p1ulv1601.2 kV=0.12 Vminpu=0.8 Vmaxpu=1.2 model=1 kW=8.020736002000627 kvar=0.8077597125403054 Phases=1 yearly=res_kw_411_pu

New Load.load_p1ulv1603_1 conn=wye bus1=p1ulv1603.1 kV=0.12 Vminpu=0.8 Vmaxpu=1.2 model=1 kW=2.40000228705824 kvar=1.0173787262529668 Phases=1 yearly=res_kw_1205_pu

New Load.load_p1ulv1603_2 conn=wye bus1=p1ulv1603.2 kV=0.12 Vminpu=0.8 Vmaxpu=1.2 model=1 kW=2.40000228705824 kvar=1.0173787262529668 Phases=1 yearly=res_kw_1205_pu

New Load.load_p1ulv1604_1 conn=wye bus1=p1ulv1604.1 kV=0.12 Vminpu=0.8 Vmaxpu=1.2 model=1 kW=6.224817813202313 kvar=1.7553010009693135 Phases=1 yearly=res_kw_710_pu

New Load.load_p1ulv1604_2 conn=wye bus1=p1ulv1604.2 kV=0.12 Vminpu=0.8 Vmaxpu=1.2 model=1 kW=6.224817813202313 kvar=1.7553010009693135 Phases=1 yearly=res_kw_710_pu

New Load.load_p1ulv1606_1 conn=wye bus1=p1ulv1606.1 kV=0.12 Vminpu=0.8 Vmaxpu=1.2 model=1 kW=5.5396149838334106 kvar=1.3495096504699533 Phases=1 yearly=res_kw_1273_pu

New Load.load_p1ulv1606_2 conn=wye bus1=p1ulv1606.2 kV=0.12 Vminpu=0.8 Vmaxpu=1.2 model=1 kW=5.5396149838334106 kvar=1.3495096504699533 Phases=1 yearly=res_kw_1273_pu

New Load.load_p1ulv1607_1 conn=wye bus1=p1ulv1607.1 kV=0.12 Vminpu=0.8 Vmaxpu=1.2 model=1 kW=4.666080754031652 kvar=0.9704814918535188 Phases=1 yearly=res_kw_280_pu

New Load.load_p1ulv1607_2 conn=wye bus1=p1ulv1607.2 kV=0.12 Vminpu=0.8 Vmaxpu=1.2 model=1 kW=4.666080754031652 kvar=0.9704814918535188 Phases=1 yearly=res_kw_280_pu

New Load.load_p1ulv1609_1 conn=wye bus1=p1ulv1609.1 kV=0.12 Vminpu=0.8 Vmaxpu=1.2 model=1 kW=4.788649591238137 kvar=1.023651375705972 Phases=1 yearly=res_kw_512_pu

New Load.load_p1ulv1609_2 conn=wye bus1=p1ulv1609.2 kV=0.12 Vminpu=0.8 Vmaxpu=1.2 model=1 kW=4.788649591238137 kvar=1.023651375705972 Phases=1 yearly=res_kw_512_pu

New Load.load_p1ulv1611_1 conn=wye bus1=p1ulv1611.1 kV=0.12 Vminpu=0.8 Vmaxpu=1.2 model=1 kW=2.6241521841182514 kvar=0.8429304779950015 Phases=1 yearly=res_kw_33_pu

New Load.load_p1ulv1611_2 conn=wye bus1=p1ulv1611.2 kV=0.12 Vminpu=0.8 Vmaxpu=1.2 model=1 kW=2.6241521841182514 kvar=0.8429304779950015 Phases=1 yearly=res_kw_33_pu

New Load.load_p1ulv1613_1 conn=wye bus1=p1ulv1613.1 kV=0.12 Vminpu=0.8 Vmaxpu=1.2 model=1 kW=4.78815623948431 kvar=1.2110296754961107 Phases=1 yearly=res_kw_842_pu

New Load.load_p1ulv1613_2 conn=wye bus1=p1ulv1613.2 kV=0.12 Vminpu=0.8 Vmaxpu=1.2 model=1 kW=4.78815623948431 kvar=1.2110296754961107 Phases=1 yearly=res_kw_842_pu

New Load.load_p1ulv1614_1 conn=wye bus1=p1ulv1614.1 kV=0.12 Vminpu=0.8 Vmaxpu=1.2 model=1 kW=2.1724381950021665 kvar=0.9907382338000528 Phases=1 yearly=res_kw_292_pu

New Load.load_p1ulv1614_2 conn=wye bus1=p1ulv1614.2 kV=0.12 Vminpu=0.8 Vmaxpu=1.2 model=1 kW=2.1724381950021665 kvar=0.9907382338000528 Phases=1 yearly=res_kw_292_pu

New Load.load_p1ulv1615_1 conn=wye bus1=p1ulv1615.1 kV=0.12 Vminpu=0.8 Vmaxpu=1.2 model=1 kW=4.666080754031652 kvar=0.9704814918535188 Phases=1 yearly=res_kw_280_pu

New Load.load_p1ulv1615_2 conn=wye bus1=p1ulv1615.2 kV=0.12 Vminpu=0.8 Vmaxpu=1.2 model=1 kW=4.666080754031652 kvar=0.9704814918535188 Phases=1 yearly=res_kw_280_pu

New Load.load_p1ulv1617_1 conn=wye bus1=p1ulv1617.1 kV=0.12 Vminpu=0.8 Vmaxpu=1.2 model=1 kW=3.8748715750127736 kvar=1.5614372175332516 Phases=1 yearly=res_kw_517_pu

New Load.load_p1ulv1617_2 conn=wye bus1=p1ulv1617.2 kV=0.12 Vminpu=0.8 Vmaxpu=1.2 model=1 kW=3.8748715750127736 kvar=1.5614372175332516 Phases=1 yearly=res_kw_517_pu

New Load.load_p1ulv1622_1 conn=wye bus1=p1ulv1622.1 kV=0.12 Vminpu=0.8 Vmaxpu=1.2 model=1 kW=6.520159505202592 kvar=1.1378587223610979 Phases=1 yearly=res_kw_879_pu

New Load.load_p1ulv1622_2 conn=wye bus1=p1ulv1622.2 kV=0.12 Vminpu=0.8 Vmaxpu=1.2 model=1 kW=6.520159505202592 kvar=1.1378587223610979 Phases=1 yearly=res_kw_879_pu

New Load.load_p1ulv1627_1 conn=wye bus1=p1ulv1627.1 kV=0.12 Vminpu=0.8 Vmaxpu=1.2 model=1 kW=7.820072877358693 kvar=1.759853089528969 Phases=1 yearly=res_kw_97_pu

New Load.load_p1ulv1627_2 conn=wye bus1=p1ulv1627.2 kV=0.12 Vminpu=0.8 Vmaxpu=1.2 model=1 kW=7.820072877358693 kvar=1.759853089528969 Phases=1 yearly=res_kw_97_pu

New Load.load_p1ulv1631_1 conn=wye bus1=p1ulv1631.1 kV=0.12 Vminpu=0.8 Vmaxpu=1.2 model=1 kW=4.760442075087689 kvar=1.0766161551105315 Phases=1 yearly=res_kw_807_pu

New Load.load_p1ulv1631_2 conn=wye bus1=p1ulv1631.2 kV=0.12 Vminpu=0.8 Vmaxpu=1.2 model=1 kW=4.760442075087689 kvar=1.0766161551105315 Phases=1 yearly=res_kw_807_pu

New Load.load_p1ulv1638 conn=wye bus1=p1ulv1638.1.2.3 kV=0.48 Vminpu=0.8 Vmaxpu=1.2 model=1 kW=90.84575360320908 kvar=22.30335579553028 Phases=3 yearly=com_kw_13363_pu

New Load.load_p1ulv1897 conn=wye bus1=p1ulv1897.1.2.3 kV=0.48 Vminpu=0.8 Vmaxpu=1.2 model=1 kW=102.83620489813865 kvar=36.81420938044198 Phases=3 yearly=com_kw_14822_pu

New Load.load_p1ulv1898 conn=wye bus1=p1ulv1898.1.2.3 kV=0.48 Vminpu=0.8 Vmaxpu=1.2 model=1 kW=408.5425195897842 kvar=114.23392096388957 Phases=3 yearly=com_kw_13096_pu

New Load.load_p1ulv1899_1 conn=wye bus1=p1ulv1899.1 kV=0.12 Vminpu=0.8 Vmaxpu=1.2 model=1 kW=4.315153527476089 kvar=1.1500690460008876 Phases=1 yearly=res_kw_305_pu

New Load.load_p1ulv1899_2 conn=wye bus1=p1ulv1899.2 kV=0.12 Vminpu=0.8 Vmaxpu=1.2 model=1 kW=4.315153527476089 kvar=1.1500690460008876 Phases=1 yearly=res_kw_305_pu

New Load.load_p1ulv1900_1 conn=wye bus1=p1ulv1900.1 kV=0.12 Vminpu=0.8 Vmaxpu=1.2 model=1 kW=2.623267981089487 kvar=1.212519304398851 Phases=1 yearly=res_kw_452_pu

New Load.load_p1ulv1900_2 conn=wye bus1=p1ulv1900.2 kV=0.12 Vminpu=0.8 Vmaxpu=1.2 model=1 kW=2.623267981089487 kvar=1.212519304398851 Phases=1 yearly=res_kw_452_pu

New Load.load_p1ulv1901_1 conn=wye bus1=p1ulv1901.1 kV=0.12 Vminpu=0.8 Vmaxpu=1.2 model=1 kW=2.658027342573646 kvar=0.9113625924854422 Phases=1 yearly=res_kw_1105_pu

New Load.load_p1ulv1901_2 conn=wye bus1=p1ulv1901.2 kV=0.12 Vminpu=0.8 Vmaxpu=1.2 model=1 kW=2.658027342573646 kvar=0.9113625924854422 Phases=1 yearly=res_kw_1105_pu

New Load.load_p1ulv1902_1 conn=wye bus1=p1ulv1902.1 kV=0.12 Vminpu=0.8 Vmaxpu=1.2 model=1 kW=5.121080771859233 kvar=1.1807848049623457 Phases=1 yearly=res_kw_691_pu

New Load.load_p1ulv1902_2 conn=wye bus1=p1ulv1902.2 kV=0.12 Vminpu=0.8 Vmaxpu=1.2 model=1 kW=5.121080771859233 kvar=1.1807848049623457 Phases=1 yearly=res_kw_691_pu

New Load.load_p1ulv1903_1 conn=wye bus1=p1ulv1903.1 kV=0.12 Vminpu=0.8 Vmaxpu=1.2 model=1 kW=3.789884331965197 kvar=1.0036576715582408 Phases=1 yearly=res_kw_670_pu

New Load.load_p1ulv1903_2 conn=wye bus1=p1ulv1903.2 kV=0.12 Vminpu=0.8 Vmaxpu=1.2 model=1 kW=3.789884331965197 kvar=1.0036576715582408 Phases=1 yearly=res_kw_670_pu

New Load.load_p1ulv1904_1 conn=wye bus1=p1ulv1904.1 kV=0.12 Vminpu=0.8 Vmaxpu=1.2 model=1 kW=1.5280154200518221 kvar=0.1928528517351529 Phases=1 yearly=res_kw_261_pu

New Load.load_p1ulv1904_2 conn=wye bus1=p1ulv1904.2 kV=0.12 Vminpu=0.8 Vmaxpu=1.2 model=1 kW=1.5280154200518221 kvar=0.1928528517351529 Phases=1 yearly=res_kw_261_pu

New Load.load_p1ulv1905_1 conn=wye bus1=p1ulv1905.1 kV=0.12 Vminpu=0.8 Vmaxpu=1.2 model=1 kW=3.8029744718879392 kvar=1.1462670306842289 Phases=1 yearly=res_kw_263_pu

New Load.load_p1ulv1905_2 conn=wye bus1=p1ulv1905.2 kV=0.12 Vminpu=0.8 Vmaxpu=1.2 model=1 kW=3.8029744718879392 kvar=1.1462670306842289 Phases=1 yearly=res_kw_263_pu

New Load.load_p1ulv1906_1 conn=wye bus1=p1ulv1906.1 kV=0.12 Vminpu=0.8 Vmaxpu=1.2 model=1 kW=4.788649591238137 kvar=1.023651375705972 Phases=1 yearly=res_kw_512_pu

New Load.load_p1ulv1906_2 conn=wye bus1=p1ulv1906.2 kV=0.12 Vminpu=0.8 Vmaxpu=1.2 model=1 kW=4.788649591238137 kvar=1.023651375705972 Phases=1 yearly=res_kw_512_pu

New Load.load_p1ulv1907_1 conn=wye bus1=p1ulv1907.1 kV=0.12 Vminpu=0.8 Vmaxpu=1.2 model=1 kW=3.6844020253442458 kvar=1.4451491397155931 Phases=1 yearly=res_kw_1258_pu

New Load.load_p1ulv1907_2 conn=wye bus1=p1ulv1907.2 kV=0.12 Vminpu=0.8 Vmaxpu=1.2 model=1 kW=3.6844020253442458 kvar=1.4451491397155931 Phases=1 yearly=res_kw_1258_pu

New Load.load_p1ulv1908_1 conn=wye bus1=p1ulv1908.1 kV=0.12 Vminpu=0.8 Vmaxpu=1.2 model=1 kW=4.359410160991208 kvar=0.7703346328307125 Phases=1 yearly=res_kw_470_pu

New Load.load_p1ulv1908_2 conn=wye bus1=p1ulv1908.2 kV=0.12 Vminpu=0.8 Vmaxpu=1.2 model=1 kW=4.359410160991208 kvar=0.7703346328307125 Phases=1 yearly=res_kw_470_pu

New Load.load_p1ulv1909_1 conn=wye bus1=p1ulv1909.1 kV=0.12 Vminpu=0.8 Vmaxpu=1.2 model=1 kW=4.788649591238137 kvar=1.023651375705972 Phases=1 yearly=res_kw_512_pu

New Load.load_p1ulv1909_2 conn=wye bus1=p1ulv1909.2 kV=0.12 Vminpu=0.8 Vmaxpu=1.2 model=1 kW=4.788649591238137 kvar=1.023651375705972 Phases=1 yearly=res_kw_512_pu

New Load.load_p1ulv1910_1 conn=wye bus1=p1ulv1910.1 kV=0.12 Vminpu=0.8 Vmaxpu=1.2 model=1 kW=3.8029744718879392 kvar=1.1462670306842289 Phases=1 yearly=res_kw_263_pu

New Load.load_p1ulv1910_2 conn=wye bus1=p1ulv1910.2 kV=0.12 Vminpu=0.8 Vmaxpu=1.2 model=1 kW=3.8029744718879392 kvar=1.1462670306842289 Phases=1 yearly=res_kw_263_pu

New Load.load_p1ulv1911_1 conn=wye bus1=p1ulv1911.1 kV=0.12 Vminpu=0.8 Vmaxpu=1.2 model=1 kW=3.4468581914223817 kvar=1.1411197390818253 Phases=1 yearly=res_kw_250_pu

New Load.load_p1ulv1911_2 conn=wye bus1=p1ulv1911.2 kV=0.12 Vminpu=0.8 Vmaxpu=1.2 model=1 kW=3.4468581914223817 kvar=1.1411197390818253 Phases=1 yearly=res_kw_250_pu

New Load.load_p1ulv1912_1 conn=wye bus1=p1ulv1912.1 kV=0.12 Vminpu=0.8 Vmaxpu=1.2 model=1 kW=4.359410160991208 kvar=0.7703346328307125 Phases=1 yearly=res_kw_470_pu

New Load.load_p1ulv1912_2 conn=wye bus1=p1ulv1912.2 kV=0.12 Vminpu=0.8 Vmaxpu=1.2 model=1 kW=4.359410160991208 kvar=0.7703346328307125 Phases=1 yearly=res_kw_470_pu

New Load.load_p1ulv1913_1 conn=wye bus1=p1ulv1913.1 kV=0.12 Vminpu=0.8 Vmaxpu=1.2 model=1 kW=2.883742447314782 kvar=0.5485605147454705 Phases=1 yearly=res_kw_1148_pu

New Load.load_p1ulv1913_2 conn=wye bus1=p1ulv1913.2 kV=0.12 Vminpu=0.8 Vmaxpu=1.2 model=1 kW=2.883742447314782 kvar=0.5485605147454705 Phases=1 yearly=res_kw_1148_pu

New Load.load_p1ulv1914_1 conn=wye bus1=p1ulv1914.1 kV=0.12 Vminpu=0.8 Vmaxpu=1.2 model=1 kW=1.8618983584330409 kvar=0.7337589993741062 Phases=1 yearly=res_kw_141_pu

New Load.load_p1ulv1914_2 conn=wye bus1=p1ulv1914.2 kV=0.12 Vminpu=0.8 Vmaxpu=1.2 model=1 kW=1.8618983584330409 kvar=0.7337589993741062 Phases=1 yearly=res_kw_141_pu

New Load.load_p1ulv1915_1 conn=wye bus1=p1ulv1915.1 kV=0.12 Vminpu=0.8 Vmaxpu=1.2 model=1 kW=4.78815623948431 kvar=1.2110296754961107 Phases=1 yearly=res_kw_842_pu

New Load.load_p1ulv1915_2 conn=wye bus1=p1ulv1915.2 kV=0.12 Vminpu=0.8 Vmaxpu=1.2 model=1 kW=4.78815623948431 kvar=1.2110296754961107 Phases=1 yearly=res_kw_842_pu

New Load.load_p1ulv1916_1 conn=wye bus1=p1ulv1916.1 kV=0.12 Vminpu=0.8 Vmaxpu=1.2 model=1 kW=4.760442075087689 kvar=1.0766161551105315 Phases=1 yearly=res_kw_807_pu

New Load.load_p1ulv1916_2 conn=wye bus1=p1ulv1916.2 kV=0.12 Vminpu=0.8 Vmaxpu=1.2 model=1 kW=4.760442075087689 kvar=1.0766161551105315 Phases=1 yearly=res_kw_807_pu

New Load.load_p1ulv1917_1 conn=wye bus1=p1ulv1917.1 kV=0.12 Vminpu=0.8 Vmaxpu=1.2 model=1 kW=9.341738473663403 kvar=2.018548151169967 Phases=1 yearly=res_kw_504_pu

New Load.load_p1ulv1917_2 conn=wye bus1=p1ulv1917.2 kV=0.12 Vminpu=0.8 Vmaxpu=1.2 model=1 kW=9.341738473663403 kvar=2.018548151169967 Phases=1 yearly=res_kw_504_pu

New Load.load_p1ulv1918_1 conn=wye bus1=p1ulv1918.1 kV=0.12 Vminpu=0.8 Vmaxpu=1.2 model=1 kW=2.6241521841182514 kvar=0.8429304779950015 Phases=1 yearly=res_kw_33_pu

New Load.load_p1ulv1918_2 conn=wye bus1=p1ulv1918.2 kV=0.12 Vminpu=0.8 Vmaxpu=1.2 model=1 kW=2.6241521841182514 kvar=0.8429304779950015 Phases=1 yearly=res_kw_33_pu

New Load.load_p1ulv1919_1 conn=wye bus1=p1ulv1919.1 kV=0.12 Vminpu=0.8 Vmaxpu=1.2 model=1 kW=7.04256695844029 kvar=1.659740351203588 Phases=1 yearly=res_kw_707_pu

New Load.load_p1ulv1919_2 conn=wye bus1=p1ulv1919.2 kV=0.12 Vminpu=0.8 Vmaxpu=1.2 model=1 kW=7.04256695844029 kvar=1.659740351203588 Phases=1 yearly=res_kw_707_pu

New Load.load_p1ulv1920_1 conn=wye bus1=p1ulv1920.1 kV=0.12 Vminpu=0.8 Vmaxpu=1.2 model=1 kW=5.467656521863414 kvar=1.366707835572797 Phases=1 yearly=res_kw_953_pu

New Load.load_p1ulv1920_2 conn=wye bus1=p1ulv1920.2 kV=0.12 Vminpu=0.8 Vmaxpu=1.2 model=1 kW=5.467656521863414 kvar=1.366707835572797 Phases=1 yearly=res_kw_953_pu

New Load.load_p1ulv1921_1 conn=wye bus1=p1ulv1921.1 kV=0.12 Vminpu=0.8 Vmaxpu=1.2 model=1 kW=2.40000228705824 kvar=1.0173787262529668 Phases=1 yearly=res_kw_1205_pu

New Load.load_p1ulv1921_2 conn=wye bus1=p1ulv1921.2 kV=0.12 Vminpu=0.8 Vmaxpu=1.2 model=1 kW=2.40000228705824 kvar=1.0173787262529668 Phases=1 yearly=res_kw_1205_pu

New Load.load_p1ulv2826 conn=wye bus1=p1ulv2826.1.2.3 kV=0.48 Vminpu=0.8 Vmaxpu=1.2 model=1 kW=359.6894358959385 kvar=105.981216307442 Phases=3 yearly=com_kw_12814_pu

New Load.load_p1ulv2828_1 conn=wye bus1=p1ulv2828.1 kV=0.12 Vminpu=0.8 Vmaxpu=1.2 model=1 kW=7.069238273328503 kvar=1.7218628368258782 Phases=1 yearly=res_kw_907_pu

New Load.load_p1ulv2828_2 conn=wye bus1=p1ulv2828.2 kV=0.12 Vminpu=0.8 Vmaxpu=1.2 model=1 kW=7.069238273328503 kvar=1.7218628368258782 Phases=1 yearly=res_kw_907_pu

New Load.load_p1ulv2836 conn=wye bus1=p1ulv2836.1.2.3 kV=0.48 Vminpu=0.8 Vmaxpu=1.2 model=1 kW=40.942981916270845 kvar=12.738632234961589 Phases=3 yearly=com_kw_14701_pu

New Load.load_p1ulv2845_1 conn=wye bus1=p1ulv2845.1 kV=0.12 Vminpu=0.8 Vmaxpu=1.2 model=1 kW=4.788649591238137 kvar=1.023651375705972 Phases=1 yearly=res_kw_512_pu

New Load.load_p1ulv2845_2 conn=wye bus1=p1ulv2845.2 kV=0.12 Vminpu=0.8 Vmaxpu=1.2 model=1 kW=4.788649591238137 kvar=1.023651375705972 Phases=1 yearly=res_kw_512_pu

New Load.load_p1ulv2846_1 conn=wye bus1=p1ulv2846.1 kV=0.12 Vminpu=0.8 Vmaxpu=1.2 model=1 kW=3.789884331965197 kvar=1.0036576715582408 Phases=1 yearly=res_kw_670_pu

New Load.load_p1ulv2846_2 conn=wye bus1=p1ulv2846.2 kV=0.12 Vminpu=0.8 Vmaxpu=1.2 model=1 kW=3.789884331965197 kvar=1.0036576715582408 Phases=1 yearly=res_kw_670_pu

New Load.load_p1ulv2847_1 conn=wye bus1=p1ulv2847.1 kV=0.12 Vminpu=0.8 Vmaxpu=1.2 model=1 kW=7.820072877358693 kvar=1.759853089528969 Phases=1 yearly=res_kw_97_pu

New Load.load_p1ulv2847_2 conn=wye bus1=p1ulv2847.2 kV=0.12 Vminpu=0.8 Vmaxpu=1.2 model=1 kW=7.820072877358693 kvar=1.759853089528969 Phases=1 yearly=res_kw_97_pu

New Load.load_p1ulv2848_1 conn=wye bus1=p1ulv2848.1 kV=0.12 Vminpu=0.8 Vmaxpu=1.2 model=1 kW=6.136100367362728 kvar=1.4521187609701354 Phases=1 yearly=res_kw_362_pu

New Load.load_p1ulv2848_2 conn=wye bus1=p1ulv2848.2 kV=0.12 Vminpu=0.8 Vmaxpu=1.2 model=1 kW=6.136100367362728 kvar=1.4521187609701354 Phases=1 yearly=res_kw_362_pu

New Load.load_p1ulv2849_1 conn=wye bus1=p1ulv2849.1 kV=0.12 Vminpu=0.8 Vmaxpu=1.2 model=1 kW=9.341738473663403 kvar=2.018548151169967 Phases=1 yearly=res_kw_504_pu

New Load.load_p1ulv2849_2 conn=wye bus1=p1ulv2849.2 kV=0.12 Vminpu=0.8 Vmaxpu=1.2 model=1 kW=9.341738473663403 kvar=2.018548151169967 Phases=1 yearly=res_kw_504_pu

New Load.load_p1ulv2850_1 conn=wye bus1=p1ulv2850.1 kV=0.12 Vminpu=0.8 Vmaxpu=1.2 model=1 kW=2.6241521841182514 kvar=0.8429304779950015 Phases=1 yearly=res_kw_33_pu

New Load.load_p1ulv2850_2 conn=wye bus1=p1ulv2850.2 kV=0.12 Vminpu=0.8 Vmaxpu=1.2 model=1 kW=2.6241521841182514 kvar=0.8429304779950015 Phases=1 yearly=res_kw_33_pu

New Load.load_p1ulv2851_1 conn=wye bus1=p1ulv2851.1 kV=0.12 Vminpu=0.8 Vmaxpu=1.2 model=1 kW=6.139488924452324 kvar=1.0282575631325632 Phases=1 yearly=res_kw_421_pu

New Load.load_p1ulv2851_2 conn=wye bus1=p1ulv2851.2 kV=0.12 Vminpu=0.8 Vmaxpu=1.2 model=1 kW=6.139488924452324 kvar=1.0282575631325632 Phases=1 yearly=res_kw_421_pu

New Load.load_p1ulv2852 conn=wye bus1=p1ulv2852.1.2.3 kV=0.48 Vminpu=0.8 Vmaxpu=1.2 model=1 kW=53.080334230389184 kvar=1.9658210727813157 Phases=3 yearly=com_kw_14217_pu

New Load.load_p1ulv2853_1 conn=wye bus1=p1ulv2853.1 kV=0.12 Vminpu=0.8 Vmaxpu=1.2 model=1 kW=6.847378896370207 kvar=0.2857422414791666 Phases=1 yearly=com_kw_14382_pu

New Load.load_p1ulv2853_2 conn=wye bus1=p1ulv2853.2 kV=0.12 Vminpu=0.8 Vmaxpu=1.2 model=1 kW=6.847378896370207 kvar=0.2857422414791666 Phases=1 yearly=com_kw_14382_pu

New Load.load_p1ulv2854_1 conn=wye bus1=p1ulv2854.1 kV=0.12 Vminpu=0.8 Vmaxpu=1.2 model=1 kW=2.6241521841182514 kvar=0.8429304779950015 Phases=1 yearly=res_kw_33_pu

New Load.load_p1ulv2854_2 conn=wye bus1=p1ulv2854.2 kV=0.12 Vminpu=0.8 Vmaxpu=1.2 model=1 kW=2.6241521841182514 kvar=0.8429304779950015 Phases=1 yearly=res_kw_33_pu

New Load.load_p1ulv2855_1 conn=wye bus1=p1ulv2855.1 kV=0.12 Vminpu=0.8 Vmaxpu=1.2 model=1 kW=11.103412860117606 kvar=0.3466211695646434 Phases=1 yearly=com_kw_14427_pu

New Load.load_p1ulv2855_2 conn=wye bus1=p1ulv2855.2 kV=0.12 Vminpu=0.8 Vmaxpu=1.2 model=1 kW=11.103412860117606 kvar=0.3466211695646434 Phases=1 yearly=com_kw_14427_pu

New Load.load_p1ulv2856_1 conn=wye bus1=p1ulv2856.1 kV=0.12 Vminpu=0.8 Vmaxpu=1.2 model=1 kW=1.8636614682402992 kvar=0.5015179682387616 Phases=1 yearly=res_kw_532_pu

New Load.load_p1ulv2856_2 conn=wye bus1=p1ulv2856.2 kV=0.12 Vminpu=0.8 Vmaxpu=1.2 model=1 kW=1.8636614682402992 kvar=0.5015179682387616 Phases=1 yearly=res_kw_532_pu

New Load.load_p1ulv2857_1 conn=wye bus1=p1ulv2857.1 kV=0.12 Vminpu=0.8 Vmaxpu=1.2 model=1 kW=8.53881682164217 kvar=2.4870512809868655 Phases=1 yearly=com_kw_14828_pu

New Load.load_p1ulv2857_2 conn=wye bus1=p1ulv2857.2 kV=0.12 Vminpu=0.8 Vmaxpu=1.2 model=1 kW=8.53881682164217 kvar=2.4870512809868655 Phases=1 yearly=com_kw_14828_pu

New Load.load_p1ulv2858_1 conn=wye bus1=p1ulv2858.1 kV=0.12 Vminpu=0.8 Vmaxpu=1.2 model=1 kW=2.6241521841182514 kvar=0.8429304779950015 Phases=1 yearly=res_kw_33_pu

New Load.load_p1ulv2858_2 conn=wye bus1=p1ulv2858.2 kV=0.12 Vminpu=0.8 Vmaxpu=1.2 model=1 kW=2.6241521841182514 kvar=0.8429304779950015 Phases=1 yearly=res_kw_33_pu

New Load.load_p1ulv2860_1 conn=wye bus1=p1ulv2856.1 kV=0.12 Vminpu=0.8 Vmaxpu=1.2 model=1 kW=4.78815623948431 kvar=1.2110296754961107 Phases=1 yearly=res_kw_842_pu

New Load.load_p1ulv2860_2 conn=wye bus1=p1ulv2856.2 kV=0.12 Vminpu=0.8 Vmaxpu=1.2 model=1 kW=4.78815623948431 kvar=1.2110296754961107 Phases=1 yearly=res_kw_842_pu

New Load.load_p1ulv2861_1 conn=wye bus1=p1ulv2861.1 kV=0.12 Vminpu=0.8 Vmaxpu=1.2 model=1 kW=4.78815623948431 kvar=1.2110296754961107 Phases=1 yearly=res_kw_842_pu

New Load.load_p1ulv2861_2 conn=wye bus1=p1ulv2861.2 kV=0.12 Vminpu=0.8 Vmaxpu=1.2 model=1 kW=4.78815623948431 kvar=1.2110296754961107 Phases=1 yearly=res_kw_842_pu

New Load.load_p1ulv2862_1 conn=wye bus1=p1ulv2862.1 kV=0.12 Vminpu=0.8 Vmaxpu=1.2 model=1 kW=3.3641909207712115 kvar=0.9284266244461494 Phases=1 yearly=res_kw_523_pu

New Load.load_p1ulv2862_2 conn=wye bus1=p1ulv2862.2 kV=0.12 Vminpu=0.8 Vmaxpu=1.2 model=1 kW=3.3641909207712115 kvar=0.9284266244461494 Phases=1 yearly=res_kw_523_pu

New Load.load_p1ulv2863_1 conn=wye bus1=p1ulv2863.1 kV=0.12 Vminpu=0.8 Vmaxpu=1.2 model=1 kW=4.788649591238137 kvar=1.023651375705972 Phases=1 yearly=res_kw_512_pu

New Load.load_p1ulv2863_2 conn=wye bus1=p1ulv2863.2 kV=0.12 Vminpu=0.8 Vmaxpu=1.2 model=1 kW=4.788649591238137 kvar=1.023651375705972 Phases=1 yearly=res_kw_512_pu

New Load.load_p1ulv2865_1 conn=wye bus1=p1ulv2865.1 kV=0.12 Vminpu=0.8 Vmaxpu=1.2 model=1 kW=2.605021030189827 kvar=1.0007509371876184 Phases=1 yearly=res_kw_24_pu

New Load.load_p1ulv2865_2 conn=wye bus1=p1ulv2865.2 kV=0.12 Vminpu=0.8 Vmaxpu=1.2 model=1 kW=2.605021030189827 kvar=1.0007509371876184 Phases=1 yearly=res_kw_24_pu

New Load.load_p1ulv2866_1 conn=wye bus1=p1ulv2866.1 kV=0.12 Vminpu=0.8 Vmaxpu=1.2 model=1 kW=8.028761563825192 kvar=2.8988403958800677 Phases=1 yearly=res_kw_798_pu

New Load.load_p1ulv2866_2 conn=wye bus1=p1ulv2866.2 kV=0.12 Vminpu=0.8 Vmaxpu=1.2 model=1 kW=8.028761563825192 kvar=2.8988403958800677 Phases=1 yearly=res_kw_798_pu

New Load.load_p1ulv2867 conn=wye bus1=p1ulv2867.1.2.3 kV=0.48 Vminpu=0.8 Vmaxpu=1.2 model=1 kW=31.56390894948716 kvar=5.59016195527881 Phases=3 yearly=res_kw_76_pu

New Load.load_p1ulv2868_1 conn=wye bus1=p1ulv2868.1 kV=0.12 Vminpu=0.8 Vmaxpu=1.2 model=1 kW=3.460037762068802 kvar=0.6117019426679855 Phases=1 yearly=res_kw_205_pu

New Load.load_p1ulv2868_2 conn=wye bus1=p1ulv2868.2 kV=0.12 Vminpu=0.8 Vmaxpu=1.2 model=1 kW=3.460037762068802 kvar=0.6117019426679855 Phases=1 yearly=res_kw_205_pu

New Load.load_p1ulv2869_1 conn=wye bus1=p1ulv2869.1 kV=0.12 Vminpu=0.8 Vmaxpu=1.2 model=1 kW=4.78815623948431 kvar=1.2110296754961107 Phases=1 yearly=res_kw_842_pu

New Load.load_p1ulv2869_2 conn=wye bus1=p1ulv2869.2 kV=0.12 Vminpu=0.8 Vmaxpu=1.2 model=1 kW=4.78815623948431 kvar=1.2110296754961107 Phases=1 yearly=res_kw_842_pu

New Load.load_p1ulv2870 conn=wye bus1=p1ulv2870.1.2.3 kV=0.48 Vminpu=0.8 Vmaxpu=1.2 model=1 kW=43.73505631398508 kvar=5.0290236670440045 Phases=3 yearly=res_kw_598_pu

New Load.load_p1ulv2871_1 conn=wye bus1=p1ulv2871.1 kV=0.12 Vminpu=0.8 Vmaxpu=1.2 model=1 kW=5.493107438910514 kvar=1.5415823949133614 Phases=1 yearly=res_kw_1084_pu

New Load.load_p1ulv2871_2 conn=wye bus1=p1ulv2871.2 kV=0.12 Vminpu=0.8 Vmaxpu=1.2 model=1 kW=5.493107438910514 kvar=1.5415823949133614 Phases=1 yearly=res_kw_1084_pu

New Load.load_p1ulv2872 conn=wye bus1=p1ulv2872.1.2.3 kV=0.48 Vminpu=0.8 Vmaxpu=1.2 model=1 kW=31.56390894948716 kvar=5.59016195527881 Phases=3 yearly=res_kw_76_pu

New Load.load_p1ulv2873_1 conn=wye bus1=p1ulv2873.1 kV=0.12 Vminpu=0.8 Vmaxpu=1.2 model=1 kW=5.657185051194877 kvar=1.2069063012387689 Phases=1 yearly=res_kw_780_pu

New Load.load_p1ulv2873_2 conn=wye bus1=p1ulv2873.2 kV=0.12 Vminpu=0.8 Vmaxpu=1.2 model=1 kW=5.657185051194877 kvar=1.2069063012387689 Phases=1 yearly=res_kw_780_pu

New Load.load_p1ulv2874 conn=wye bus1=p1ulv2874.1.2.3 kV=0.48 Vminpu=0.8 Vmaxpu=1.2 model=1 kW=43.73505631398508 kvar=5.0290236670440045 Phases=3 yearly=res_kw_598_pu

New Load.load_p1ulv2875 conn=wye bus1=p1ulv2875.1.2.3 kV=0.48 Vminpu=0.8 Vmaxpu=1.2 model=1 kW=39.543366268664286 kvar=3.4584389053802633 Phases=3 yearly=res_kw_654_pu

New Load.load_p1ulv2876_1 conn=wye bus1=p1ulv2876.1 kV=0.12 Vminpu=0.8 Vmaxpu=1.2 model=1 kW=3.6844020253442458 kvar=1.4451491397155931 Phases=1 yearly=res_kw_1258_pu

New Load.load_p1ulv2876_2 conn=wye bus1=p1ulv2876.2 kV=0.12 Vminpu=0.8 Vmaxpu=1.2 model=1 kW=3.6844020253442458 kvar=1.4451491397155931 Phases=1 yearly=res_kw_1258_pu

New Load.load_p1ulv2877_1 conn=wye bus1=p1ulv2877.1 kV=0.12 Vminpu=0.8 Vmaxpu=1.2 model=1 kW=6.702223593657906 kvar=1.4906391030592414 Phases=1 yearly=res_kw_199_pu

New Load.load_p1ulv2877_2 conn=wye bus1=p1ulv2877.2 kV=0.12 Vminpu=0.8 Vmaxpu=1.2 model=1 kW=6.702223593657906 kvar=1.4906391030592414 Phases=1 yearly=res_kw_199_pu

New Load.load_p1ulv2878 conn=wye bus1=p1ulv2878.1.2.3 kV=0.48 Vminpu=0.8 Vmaxpu=1.2 model=1 kW=43.73505631398508 kvar=5.0290236670440045 Phases=3 yearly=res_kw_598_pu

New Load.load_p1ulv2879_1 conn=wye bus1=p1ulv2879.1 kV=0.12 Vminpu=0.8 Vmaxpu=1.2 model=1 kW=2.6241521841182514 kvar=0.8429304779950015 Phases=1 yearly=res_kw_33_pu

New Load.load_p1ulv2879_2 conn=wye bus1=p1ulv2879.2 kV=0.12 Vminpu=0.8 Vmaxpu=1.2 model=1 kW=2.6241521841182514 kvar=0.8429304779950015 Phases=1 yearly=res_kw_33_pu

New Load.load_p1ulv2880 conn=wye bus1=p1ulv2880.1.2.3 kV=0.48 Vminpu=0.8 Vmaxpu=1.2 model=1 kW=43.73505631398508 kvar=5.0290236670440045 Phases=3 yearly=res_kw_598_pu

New Load.load_p1ulv2882_1 conn=wye bus1=p1ulv2882.1 kV=0.12 Vminpu=0.8 Vmaxpu=1.2 model=1 kW=5.675346369339635 kvar=1.238985226090579 Phases=1 yearly=res_kw_1186_pu

New Load.load_p1ulv2882_2 conn=wye bus1=p1ulv2882.2 kV=0.12 Vminpu=0.8 Vmaxpu=1.2 model=1 kW=5.675346369339635 kvar=1.238985226090579 Phases=1 yearly=res_kw_1186_pu

New Load.load_p1ulv2883 conn=wye bus1=p1ulv2883.1.2.3 kV=0.48 Vminpu=0.8 Vmaxpu=1.2 model=1 kW=39.543366268664286 kvar=3.4584389053802633 Phases=3 yearly=res_kw_654_pu

New Load.load_p1ulv2885 conn=wye bus1=p1ulv2885.1.2.3 kV=0.48 Vminpu=0.8 Vmaxpu=1.2 model=1 kW=43.73505631398508 kvar=5.0290236670440045 Phases=3 yearly=res_kw_598_pu

New Load.load_p1ulv2886_1 conn=wye bus1=p1ulv2886.1 kV=0.12 Vminpu=0.8 Vmaxpu=1.2 model=1 kW=7.7578735794910925 kvar=1.9049941012910125 Phases=1 yearly=res_kw_863_pu

New Load.load_p1ulv2886_2 conn=wye bus1=p1ulv2886.2 kV=0.12 Vminpu=0.8 Vmaxpu=1.2 model=1 kW=7.7578735794910925 kvar=1.9049941012910125 Phases=1 yearly=res_kw_863_pu

New Load.load_p1ulv2887_1 conn=wye bus1=p1ulv2887.1 kV=0.12 Vminpu=0.8 Vmaxpu=1.2 model=1 kW=2.605021030189827 kvar=1.0007509371876184 Phases=1 yearly=res_kw_24_pu

New Load.load_p1ulv2887_2 conn=wye bus1=p1ulv2887.2 kV=0.12 Vminpu=0.8 Vmaxpu=1.2 model=1 kW=2.605021030189827 kvar=1.0007509371876184 Phases=1 yearly=res_kw_24_pu

New Load.load_p1ulv2888 conn=wye bus1=p1ulv2888.1.2.3 kV=0.48 Vminpu=0.8 Vmaxpu=1.2 model=1 kW=31.56390894948716 kvar=5.59016195527881 Phases=3 yearly=res_kw_76_pu

New Load.load_p1ulv2889_1 conn=wye bus1=p1ulv2889.1 kV=0.12 Vminpu=0.8 Vmaxpu=1.2 model=1 kW=3.8748715750127736 kvar=1.5614372175332516 Phases=1 yearly=res_kw_517_pu

New Load.load_p1ulv2889_2 conn=wye bus1=p1ulv2889.2 kV=0.12 Vminpu=0.8 Vmaxpu=1.2 model=1 kW=3.8748715750127736 kvar=1.5614372175332516 Phases=1 yearly=res_kw_517_pu

New Load.load_p1ulv2891_1 conn=wye bus1=p1ulv2891.1 kV=0.12 Vminpu=0.8 Vmaxpu=1.2 model=1 kW=2.1894046505184286 kvar=0.7281040757251952 Phases=1 yearly=res_kw_1042_pu

New Load.load_p1ulv2891_2 conn=wye bus1=p1ulv2891.2 kV=0.12 Vminpu=0.8 Vmaxpu=1.2 model=1 kW=2.1894046505184286 kvar=0.7281040757251952 Phases=1 yearly=res_kw_1042_pu

New Load.load_p1ulv2892_1 conn=wye bus1=p1ulv2876.1 kV=0.12 Vminpu=0.8 Vmaxpu=1.2 model=1 kW=3.3701610259235064 kvar=1.065454990641787 Phases=1 yearly=res_kw_1037_pu

New Load.load_p1ulv2892_2 conn=wye bus1=p1ulv2876.2 kV=0.12 Vminpu=0.8 Vmaxpu=1.2 model=1 kW=3.3701610259235064 kvar=1.065454990641787 Phases=1 yearly=res_kw_1037_pu

New Load.load_p1ulv2893_1 conn=wye bus1=p1ulv2893.1 kV=0.12 Vminpu=0.8 Vmaxpu=1.2 model=1 kW=4.5456747946519025 kvar=0.8738343809524335 Phases=1 yearly=res_kw_1142_pu
