New Loadshape.GSO_36.0721_-79.9153_45_180 npts= 35040 interval=0.25 mult = (file=C:\Users\ferna\Desktop\U_Laval\MITACS_Hydro_Quebec\10.Generic_Time_Series_Power_Flow\FlexSimNet\Network_data\Greensboro_GSO_urban_SH_BH/profiles/GSO_36.0721_-79.9153_45_180.csv)

New Loadshape.GSO_36.0721_-79.9153_25_225 npts= 35040 interval=0.25 mult = (file=C:\Users\ferna\Desktop\U_Laval\MITACS_Hydro_Quebec\10.Generic_Time_Series_Power_Flow\FlexSimNet\Network_data\Greensboro_GSO_urban_SH_BH/profiles/GSO_36.0721_-79.9153_25_225.csv)

New Loadshape.GSO_36.0352_-79.9153_25_270 npts= 35040 interval=0.25 mult = (file=C:\Users\ferna\Desktop\U_Laval\MITACS_Hydro_Quebec\10.Generic_Time_Series_Power_Flow\FlexSimNet\Network_data\Greensboro_GSO_urban_SH_BH/profiles/GSO_36.0352_-79.9153_25_270.csv)

New Loadshape.GSO_36.0721_-79.9153_35_180 npts= 35040 interval=0.25 mult = (file=C:\Users\ferna\Desktop\U_Laval\MITACS_Hydro_Quebec\10.Generic_Time_Series_Power_Flow\FlexSimNet\Network_data\Greensboro_GSO_urban_SH_BH/profiles/GSO_36.0721_-79.9153_35_180.csv)

New Loadshape.GSO_36.0721_-79.9153_35_90 npts= 35040 interval=0.25 mult = (file=C:\Users\ferna\Desktop\U_Laval\MITACS_Hydro_Quebec\10.Generic_Time_Series_Power_Flow\FlexSimNet\Network_data\Greensboro_GSO_urban_SH_BH/profiles/GSO_36.0721_-79.9153_35_90.csv)

New Loadshape.GSO_36.0352_-79.9153_35_225 npts= 35040 interval=0.25 mult = (file=C:\Users\ferna\Desktop\U_Laval\MITACS_Hydro_Quebec\10.Generic_Time_Series_Power_Flow\FlexSimNet\Network_data\Greensboro_GSO_urban_SH_BH/profiles/GSO_36.0352_-79.9153_35_225.csv)

New Loadshape.GSO_36.0721_-79.9153_15_180 npts= 35040 interval=0.25 mult = (file=C:\Users\ferna\Desktop\U_Laval\MITACS_Hydro_Quebec\10.Generic_Time_Series_Power_Flow\FlexSimNet\Network_data\Greensboro_GSO_urban_SH_BH/profiles/GSO_36.0721_-79.9153_15_180.csv)

New Loadshape.GSO_36.0721_-79.9153_25_90 npts= 35040 interval=0.25 mult = (file=C:\Users\ferna\Desktop\U_Laval\MITACS_Hydro_Quebec\10.Generic_Time_Series_Power_Flow\FlexSimNet\Network_data\Greensboro_GSO_urban_SH_BH/profiles/GSO_36.0721_-79.9153_25_90.csv)

New Loadshape.GSO_36.0721_-79.9153_25_135 npts= 35040 interval=0.25 mult = (file=C:\Users\ferna\Desktop\U_Laval\MITACS_Hydro_Quebec\10.Generic_Time_Series_Power_Flow\FlexSimNet\Network_data\Greensboro_GSO_urban_SH_BH/profiles/GSO_36.0721_-79.9153_25_135.csv)

New Loadshape.GSO_36.0352_-79.9153_35_135 npts= 35040 interval=0.25 mult = (file=C:\Users\ferna\Desktop\U_Laval\MITACS_Hydro_Quebec\10.Generic_Time_Series_Power_Flow\FlexSimNet\Network_data\Greensboro_GSO_urban_SH_BH/profiles/GSO_36.0352_-79.9153_35_135.csv)

New Loadshape.GSO_36.0352_-79.9153_25_225 npts= 35040 interval=0.25 mult = (file=C:\Users\ferna\Desktop\U_Laval\MITACS_Hydro_Quebec\10.Generic_Time_Series_Power_Flow\FlexSimNet\Network_data\Greensboro_GSO_urban_SH_BH/profiles/GSO_36.0352_-79.9153_25_225.csv)

New Loadshape.GSO_36.0352_-79.9153_15_90 npts= 35040 interval=0.25 mult = (file=C:\Users\ferna\Desktop\U_Laval\MITACS_Hydro_Quebec\10.Generic_Time_Series_Power_Flow\FlexSimNet\Network_data\Greensboro_GSO_urban_SH_BH/profiles/GSO_36.0352_-79.9153_15_90.csv)

New Loadshape.GSO_36.0721_-79.9153_15_270 npts= 35040 interval=0.25 mult = (file=C:\Users\ferna\Desktop\U_Laval\MITACS_Hydro_Quebec\10.Generic_Time_Series_Power_Flow\FlexSimNet\Network_data\Greensboro_GSO_urban_SH_BH/profiles/GSO_36.0721_-79.9153_15_270.csv)

New Loadshape.GSO_36.0721_-79.9153_15_135 npts= 35040 interval=0.25 mult = (file=C:\Users\ferna\Desktop\U_Laval\MITACS_Hydro_Quebec\10.Generic_Time_Series_Power_Flow\FlexSimNet\Network_data\Greensboro_GSO_urban_SH_BH/profiles/GSO_36.0721_-79.9153_15_135.csv)

New Loadshape.GSO_36.0352_-79.9153_25_135 npts= 35040 interval=0.25 mult = (file=C:\Users\ferna\Desktop\U_Laval\MITACS_Hydro_Quebec\10.Generic_Time_Series_Power_Flow\FlexSimNet\Network_data\Greensboro_GSO_urban_SH_BH/profiles/GSO_36.0352_-79.9153_25_135.csv)

New Loadshape.GSO_36.0721_-79.9153_15_225 npts= 35040 interval=0.25 mult = (file=C:\Users\ferna\Desktop\U_Laval\MITACS_Hydro_Quebec\10.Generic_Time_Series_Power_Flow\FlexSimNet\Network_data\Greensboro_GSO_urban_SH_BH/profiles/GSO_36.0721_-79.9153_15_225.csv)

New Loadshape.GSO_36.0352_-79.9153_15_180 npts= 35040 interval=0.25 mult = (file=C:\Users\ferna\Desktop\U_Laval\MITACS_Hydro_Quebec\10.Generic_Time_Series_Power_Flow\FlexSimNet\Network_data\Greensboro_GSO_urban_SH_BH/profiles/GSO_36.0352_-79.9153_15_180.csv)

New Loadshape.GSO_36.0352_-79.9153_15_270 npts= 35040 interval=0.25 mult = (file=C:\Users\ferna\Desktop\U_Laval\MITACS_Hydro_Quebec\10.Generic_Time_Series_Power_Flow\FlexSimNet\Network_data\Greensboro_GSO_urban_SH_BH/profiles/GSO_36.0352_-79.9153_15_270.csv)

New Loadshape.GSO_36.0352_-79.9153_35_90 npts= 35040 interval=0.25 mult = (file=C:\Users\ferna\Desktop\U_Laval\MITACS_Hydro_Quebec\10.Generic_Time_Series_Power_Flow\FlexSimNet\Network_data\Greensboro_GSO_urban_SH_BH/profiles/GSO_36.0352_-79.9153_35_90.csv)

New Loadshape.GSO_36.0352_-79.9153_25_180 npts= 35040 interval=0.25 mult = (file=C:\Users\ferna\Desktop\U_Laval\MITACS_Hydro_Quebec\10.Generic_Time_Series_Power_Flow\FlexSimNet\Network_data\Greensboro_GSO_urban_SH_BH/profiles/GSO_36.0352_-79.9153_25_180.csv)

New Loadshape.GSO_36.0721_-79.9153_25_180 npts= 35040 interval=0.25 mult = (file=C:\Users\ferna\Desktop\U_Laval\MITACS_Hydro_Quebec\10.Generic_Time_Series_Power_Flow\FlexSimNet\Network_data\Greensboro_GSO_urban_SH_BH/profiles/GSO_36.0721_-79.9153_25_180.csv)

New Loadshape.GSO_36.0721_-79.9153_35_225 npts= 35040 interval=0.25 mult = (file=C:\Users\ferna\Desktop\U_Laval\MITACS_Hydro_Quebec\10.Generic_Time_Series_Power_Flow\FlexSimNet\Network_data\Greensboro_GSO_urban_SH_BH/profiles/GSO_36.0721_-79.9153_35_225.csv)

New Loadshape.GSO_36.0352_-79.9153_45_180 npts= 35040 interval=0.25 mult = (file=C:\Users\ferna\Desktop\U_Laval\MITACS_Hydro_Quebec\10.Generic_Time_Series_Power_Flow\FlexSimNet\Network_data\Greensboro_GSO_urban_SH_BH/profiles/GSO_36.0352_-79.9153_45_180.csv)

New Loadshape.GSO_36.0721_-79.9153_35_270 npts= 35040 interval=0.25 mult = (file=C:\Users\ferna\Desktop\U_Laval\MITACS_Hydro_Quebec\10.Generic_Time_Series_Power_Flow\FlexSimNet\Network_data\Greensboro_GSO_urban_SH_BH/profiles/GSO_36.0721_-79.9153_35_270.csv)

New Loadshape.GSO_36.0721_-79.9153_15_90 npts= 35040 interval=0.25 mult = (file=C:\Users\ferna\Desktop\U_Laval\MITACS_Hydro_Quebec\10.Generic_Time_Series_Power_Flow\FlexSimNet\Network_data\Greensboro_GSO_urban_SH_BH/profiles/GSO_36.0721_-79.9153_15_90.csv)

New Loadshape.GSO_36.0721_-79.9153_55_135 npts= 35040 interval=0.25 mult = (file=C:\Users\ferna\Desktop\U_Laval\MITACS_Hydro_Quebec\10.Generic_Time_Series_Power_Flow\FlexSimNet\Network_data\Greensboro_GSO_urban_SH_BH/profiles/GSO_36.0721_-79.9153_55_135.csv)

New Loadshape.GSO_36.0352_-79.9153_45_135 npts= 35040 interval=0.25 mult = (file=C:\Users\ferna\Desktop\U_Laval\MITACS_Hydro_Quebec\10.Generic_Time_Series_Power_Flow\FlexSimNet\Network_data\Greensboro_GSO_urban_SH_BH/profiles/GSO_36.0352_-79.9153_45_135.csv)

New Loadshape.GSO_36.0352_-79.9153_25_90 npts= 35040 interval=0.25 mult = (file=C:\Users\ferna\Desktop\U_Laval\MITACS_Hydro_Quebec\10.Generic_Time_Series_Power_Flow\FlexSimNet\Network_data\Greensboro_GSO_urban_SH_BH/profiles/GSO_36.0352_-79.9153_25_90.csv)

New Loadshape.GSO_36.0721_-79.9153_25_270 npts= 35040 interval=0.25 mult = (file=C:\Users\ferna\Desktop\U_Laval\MITACS_Hydro_Quebec\10.Generic_Time_Series_Power_Flow\FlexSimNet\Network_data\Greensboro_GSO_urban_SH_BH/profiles/GSO_36.0721_-79.9153_25_270.csv)

New Loadshape.GSO_36.0721_-79.9153_35_135 npts= 35040 interval=0.25 mult = (file=C:\Users\ferna\Desktop\U_Laval\MITACS_Hydro_Quebec\10.Generic_Time_Series_Power_Flow\FlexSimNet\Network_data\Greensboro_GSO_urban_SH_BH/profiles/GSO_36.0721_-79.9153_35_135.csv)

New Loadshape.GSO_36.0721_-79.9153_45_135 npts= 35040 interval=0.25 mult = (file=C:\Users\ferna\Desktop\U_Laval\MITACS_Hydro_Quebec\10.Generic_Time_Series_Power_Flow\FlexSimNet\Network_data\Greensboro_GSO_urban_SH_BH/profiles/GSO_36.0721_-79.9153_45_135.csv)

New Loadshape.GSO_36.0352_-79.9153_15_225 npts= 35040 interval=0.25 mult = (file=C:\Users\ferna\Desktop\U_Laval\MITACS_Hydro_Quebec\10.Generic_Time_Series_Power_Flow\FlexSimNet\Network_data\Greensboro_GSO_urban_SH_BH/profiles/GSO_36.0352_-79.9153_15_225.csv)

New Loadshape.GSO_36.0721_-79.9153_45_90 npts= 35040 interval=0.25 mult = (file=C:\Users\ferna\Desktop\U_Laval\MITACS_Hydro_Quebec\10.Generic_Time_Series_Power_Flow\FlexSimNet\Network_data\Greensboro_GSO_urban_SH_BH/profiles/GSO_36.0721_-79.9153_45_90.csv)

New Loadshape.GSO_36.0352_-79.9153_15_135 npts= 35040 interval=0.25 mult = (file=C:\Users\ferna\Desktop\U_Laval\MITACS_Hydro_Quebec\10.Generic_Time_Series_Power_Flow\FlexSimNet\Network_data\Greensboro_GSO_urban_SH_BH/profiles/GSO_36.0352_-79.9153_15_135.csv)

New Loadshape.GSO_36.0721_-79.9153_45_270 npts= 35040 interval=0.25 mult = (file=C:\Users\ferna\Desktop\U_Laval\MITACS_Hydro_Quebec\10.Generic_Time_Series_Power_Flow\FlexSimNet\Network_data\Greensboro_GSO_urban_SH_BH/profiles/GSO_36.0721_-79.9153_45_270.csv)

New Loadshape.GSO_36.0352_-79.9153_45_225 npts= 35040 interval=0.25 mult = (file=C:\Users\ferna\Desktop\U_Laval\MITACS_Hydro_Quebec\10.Generic_Time_Series_Power_Flow\FlexSimNet\Network_data\Greensboro_GSO_urban_SH_BH/profiles/GSO_36.0352_-79.9153_45_225.csv)

New Loadshape.GSO_36.0721_-79.9153_45_225 npts= 35040 interval=0.25 mult = (file=C:\Users\ferna\Desktop\U_Laval\MITACS_Hydro_Quebec\10.Generic_Time_Series_Power_Flow\FlexSimNet\Network_data\Greensboro_GSO_urban_SH_BH/profiles/GSO_36.0721_-79.9153_45_225.csv)

New Loadshape.GSO_36.0352_-79.9153_35_270 npts= 35040 interval=0.25 mult = (file=C:\Users\ferna\Desktop\U_Laval\MITACS_Hydro_Quebec\10.Generic_Time_Series_Power_Flow\FlexSimNet\Network_data\Greensboro_GSO_urban_SH_BH/profiles/GSO_36.0352_-79.9153_35_270.csv)

New Loadshape.GSO_36.0352_-79.9153_55_180 npts= 35040 interval=0.25 mult = (file=C:\Users\ferna\Desktop\U_Laval\MITACS_Hydro_Quebec\10.Generic_Time_Series_Power_Flow\FlexSimNet\Network_data\Greensboro_GSO_urban_SH_BH/profiles/GSO_36.0352_-79.9153_55_180.csv)

New Loadshape.GSO_36.0352_-79.9153_45_90 npts= 35040 interval=0.25 mult = (file=C:\Users\ferna\Desktop\U_Laval\MITACS_Hydro_Quebec\10.Generic_Time_Series_Power_Flow\FlexSimNet\Network_data\Greensboro_GSO_urban_SH_BH/profiles/GSO_36.0352_-79.9153_45_90.csv)

New Loadshape.GSO_36.0352_-79.9153_45_270 npts= 35040 interval=0.25 mult = (file=C:\Users\ferna\Desktop\U_Laval\MITACS_Hydro_Quebec\10.Generic_Time_Series_Power_Flow\FlexSimNet\Network_data\Greensboro_GSO_urban_SH_BH/profiles/GSO_36.0352_-79.9153_45_270.csv)

New Loadshape.GSO_36.0352_-79.9153_35_180 npts= 35040 interval=0.25 mult = (file=C:\Users\ferna\Desktop\U_Laval\MITACS_Hydro_Quebec\10.Generic_Time_Series_Power_Flow\FlexSimNet\Network_data\Greensboro_GSO_urban_SH_BH/profiles/GSO_36.0352_-79.9153_35_180.csv)

New Loadshape.GSO_36.0352_-79.9153_55_90 npts= 35040 interval=0.25 mult = (file=C:\Users\ferna\Desktop\U_Laval\MITACS_Hydro_Quebec\10.Generic_Time_Series_Power_Flow\FlexSimNet\Network_data\Greensboro_GSO_urban_SH_BH/profiles/GSO_36.0352_-79.9153_55_90.csv)

New Loadshape.GSO_36.0721_-79.9153_55_225 npts= 35040 interval=0.25 mult = (file=C:\Users\ferna\Desktop\U_Laval\MITACS_Hydro_Quebec\10.Generic_Time_Series_Power_Flow\FlexSimNet\Network_data\Greensboro_GSO_urban_SH_BH/profiles/GSO_36.0721_-79.9153_55_225.csv)

New Loadshape.GSO_36.0721_-79.9153_55_180 npts= 35040 interval=0.25 mult = (file=C:\Users\ferna\Desktop\U_Laval\MITACS_Hydro_Quebec\10.Generic_Time_Series_Power_Flow\FlexSimNet\Network_data\Greensboro_GSO_urban_SH_BH/profiles/GSO_36.0721_-79.9153_55_180.csv)

New Loadshape.res_kw_691_pu npts= 35040 interval=0.25 mult = (file=C:\Users\ferna\Desktop\U_Laval\MITACS_Hydro_Quebec\10.Generic_Time_Series_Power_Flow\FlexSimNet\Network_data\Greensboro_GSO_urban_SH_BH/profiles/res_kw_691_pu.csv) qmult = (file=C:\Users\ferna\Desktop\U_Laval\MITACS_Hydro_Quebec\10.Generic_Time_Series_Power_Flow\FlexSimNet\Network_data\Greensboro_GSO_urban_SH_BH/profiles/res_kvar_691_pu.csv)

New Loadshape.res_kw_1256_pu npts= 35040 interval=0.25 mult = (file=C:\Users\ferna\Desktop\U_Laval\MITACS_Hydro_Quebec\10.Generic_Time_Series_Power_Flow\FlexSimNet\Network_data\Greensboro_GSO_urban_SH_BH/profiles/res_kw_1256_pu.csv) qmult = (file=C:\Users\ferna\Desktop\U_Laval\MITACS_Hydro_Quebec\10.Generic_Time_Series_Power_Flow\FlexSimNet\Network_data\Greensboro_GSO_urban_SH_BH/profiles/res_kvar_1256_pu.csv)

New Loadshape.res_kw_1258_pu npts= 35040 interval=0.25 mult = (file=C:\Users\ferna\Desktop\U_Laval\MITACS_Hydro_Quebec\10.Generic_Time_Series_Power_Flow\FlexSimNet\Network_data\Greensboro_GSO_urban_SH_BH/profiles/res_kw_1258_pu.csv) qmult = (file=C:\Users\ferna\Desktop\U_Laval\MITACS_Hydro_Quebec\10.Generic_Time_Series_Power_Flow\FlexSimNet\Network_data\Greensboro_GSO_urban_SH_BH/profiles/res_kvar_1258_pu.csv)

New Loadshape.res_kw_162_pu npts= 35040 interval=0.25 mult = (file=C:\Users\ferna\Desktop\U_Laval\MITACS_Hydro_Quebec\10.Generic_Time_Series_Power_Flow\FlexSimNet\Network_data\Greensboro_GSO_urban_SH_BH/profiles/res_kw_162_pu.csv) qmult = (file=C:\Users\ferna\Desktop\U_Laval\MITACS_Hydro_Quebec\10.Generic_Time_Series_Power_Flow\FlexSimNet\Network_data\Greensboro_GSO_urban_SH_BH/profiles/res_kvar_162_pu.csv)

New Loadshape.res_kw_407_pu npts= 35040 interval=0.25 mult = (file=C:\Users\ferna\Desktop\U_Laval\MITACS_Hydro_Quebec\10.Generic_Time_Series_Power_Flow\FlexSimNet\Network_data\Greensboro_GSO_urban_SH_BH/profiles/res_kw_407_pu.csv) qmult = (file=C:\Users\ferna\Desktop\U_Laval\MITACS_Hydro_Quebec\10.Generic_Time_Series_Power_Flow\FlexSimNet\Network_data\Greensboro_GSO_urban_SH_BH/profiles/res_kvar_407_pu.csv)

New Loadshape.res_kw_504_pu npts= 35040 interval=0.25 mult = (file=C:\Users\ferna\Desktop\U_Laval\MITACS_Hydro_Quebec\10.Generic_Time_Series_Power_Flow\FlexSimNet\Network_data\Greensboro_GSO_urban_SH_BH/profiles/res_kw_504_pu.csv) qmult = (file=C:\Users\ferna\Desktop\U_Laval\MITACS_Hydro_Quebec\10.Generic_Time_Series_Power_Flow\FlexSimNet\Network_data\Greensboro_GSO_urban_SH_BH/profiles/res_kvar_504_pu.csv)

New Loadshape.res_kw_843_pu npts= 35040 interval=0.25 mult = (file=C:\Users\ferna\Desktop\U_Laval\MITACS_Hydro_Quebec\10.Generic_Time_Series_Power_Flow\FlexSimNet\Network_data\Greensboro_GSO_urban_SH_BH/profiles/res_kw_843_pu.csv) qmult = (file=C:\Users\ferna\Desktop\U_Laval\MITACS_Hydro_Quebec\10.Generic_Time_Series_Power_Flow\FlexSimNet\Network_data\Greensboro_GSO_urban_SH_BH/profiles/res_kvar_843_pu.csv)

New Loadshape.res_kw_1157_pu npts= 35040 interval=0.25 mult = (file=C:\Users\ferna\Desktop\U_Laval\MITACS_Hydro_Quebec\10.Generic_Time_Series_Power_Flow\FlexSimNet\Network_data\Greensboro_GSO_urban_SH_BH/profiles/res_kw_1157_pu.csv) qmult = (file=C:\Users\ferna\Desktop\U_Laval\MITACS_Hydro_Quebec\10.Generic_Time_Series_Power_Flow\FlexSimNet\Network_data\Greensboro_GSO_urban_SH_BH/profiles/res_kvar_1157_pu.csv)

New Loadshape.res_kw_796_pu npts= 35040 interval=0.25 mult = (file=C:\Users\ferna\Desktop\U_Laval\MITACS_Hydro_Quebec\10.Generic_Time_Series_Power_Flow\FlexSimNet\Network_data\Greensboro_GSO_urban_SH_BH/profiles/res_kw_796_pu.csv) qmult = (file=C:\Users\ferna\Desktop\U_Laval\MITACS_Hydro_Quebec\10.Generic_Time_Series_Power_Flow\FlexSimNet\Network_data\Greensboro_GSO_urban_SH_BH/profiles/res_kvar_796_pu.csv)

New Loadshape.res_kw_33_pu npts= 35040 interval=0.25 mult = (file=C:\Users\ferna\Desktop\U_Laval\MITACS_Hydro_Quebec\10.Generic_Time_Series_Power_Flow\FlexSimNet\Network_data\Greensboro_GSO_urban_SH_BH/profiles/res_kw_33_pu.csv) qmult = (file=C:\Users\ferna\Desktop\U_Laval\MITACS_Hydro_Quebec\10.Generic_Time_Series_Power_Flow\FlexSimNet\Network_data\Greensboro_GSO_urban_SH_BH/profiles/res_kvar_33_pu.csv)

New Loadshape.res_kw_825_pu npts= 35040 interval=0.25 mult = (file=C:\Users\ferna\Desktop\U_Laval\MITACS_Hydro_Quebec\10.Generic_Time_Series_Power_Flow\FlexSimNet\Network_data\Greensboro_GSO_urban_SH_BH/profiles/res_kw_825_pu.csv) qmult = (file=C:\Users\ferna\Desktop\U_Laval\MITACS_Hydro_Quebec\10.Generic_Time_Series_Power_Flow\FlexSimNet\Network_data\Greensboro_GSO_urban_SH_BH/profiles/res_kvar_825_pu.csv)

New Loadshape.res_kw_411_pu npts= 35040 interval=0.25 mult = (file=C:\Users\ferna\Desktop\U_Laval\MITACS_Hydro_Quebec\10.Generic_Time_Series_Power_Flow\FlexSimNet\Network_data\Greensboro_GSO_urban_SH_BH/profiles/res_kw_411_pu.csv) qmult = (file=C:\Users\ferna\Desktop\U_Laval\MITACS_Hydro_Quebec\10.Generic_Time_Series_Power_Flow\FlexSimNet\Network_data\Greensboro_GSO_urban_SH_BH/profiles/res_kvar_411_pu.csv)

New Loadshape.res_kw_1205_pu npts= 35040 interval=0.25 mult = (file=C:\Users\ferna\Desktop\U_Laval\MITACS_Hydro_Quebec\10.Generic_Time_Series_Power_Flow\FlexSimNet\Network_data\Greensboro_GSO_urban_SH_BH/profiles/res_kw_1205_pu.csv) qmult = (file=C:\Users\ferna\Desktop\U_Laval\MITACS_Hydro_Quebec\10.Generic_Time_Series_Power_Flow\FlexSimNet\Network_data\Greensboro_GSO_urban_SH_BH/profiles/res_kvar_1205_pu.csv)

New Loadshape.res_kw_710_pu npts= 35040 interval=0.25 mult = (file=C:\Users\ferna\Desktop\U_Laval\MITACS_Hydro_Quebec\10.Generic_Time_Series_Power_Flow\FlexSimNet\Network_data\Greensboro_GSO_urban_SH_BH/profiles/res_kw_710_pu.csv) qmult = (file=C:\Users\ferna\Desktop\U_Laval\MITACS_Hydro_Quebec\10.Generic_Time_Series_Power_Flow\FlexSimNet\Network_data\Greensboro_GSO_urban_SH_BH/profiles/res_kvar_710_pu.csv)

New Loadshape.res_kw_1273_pu npts= 35040 interval=0.25 mult = (file=C:\Users\ferna\Desktop\U_Laval\MITACS_Hydro_Quebec\10.Generic_Time_Series_Power_Flow\FlexSimNet\Network_data\Greensboro_GSO_urban_SH_BH/profiles/res_kw_1273_pu.csv) qmult = (file=C:\Users\ferna\Desktop\U_Laval\MITACS_Hydro_Quebec\10.Generic_Time_Series_Power_Flow\FlexSimNet\Network_data\Greensboro_GSO_urban_SH_BH/profiles/res_kvar_1273_pu.csv)

New Loadshape.res_kw_280_pu npts= 35040 interval=0.25 mult = (file=C:\Users\ferna\Desktop\U_Laval\MITACS_Hydro_Quebec\10.Generic_Time_Series_Power_Flow\FlexSimNet\Network_data\Greensboro_GSO_urban_SH_BH/profiles/res_kw_280_pu.csv) qmult = (file=C:\Users\ferna\Desktop\U_Laval\MITACS_Hydro_Quebec\10.Generic_Time_Series_Power_Flow\FlexSimNet\Network_data\Greensboro_GSO_urban_SH_BH/profiles/res_kvar_280_pu.csv)

New Loadshape.res_kw_512_pu npts= 35040 interval=0.25 mult = (file=C:\Users\ferna\Desktop\U_Laval\MITACS_Hydro_Quebec\10.Generic_Time_Series_Power_Flow\FlexSimNet\Network_data\Greensboro_GSO_urban_SH_BH/profiles/res_kw_512_pu.csv) qmult = (file=C:\Users\ferna\Desktop\U_Laval\MITACS_Hydro_Quebec\10.Generic_Time_Series_Power_Flow\FlexSimNet\Network_data\Greensboro_GSO_urban_SH_BH/profiles/res_kvar_512_pu.csv)

New Loadshape.res_kw_842_pu npts= 35040 interval=0.25 mult = (file=C:\Users\ferna\Desktop\U_Laval\MITACS_Hydro_Quebec\10.Generic_Time_Series_Power_Flow\FlexSimNet\Network_data\Greensboro_GSO_urban_SH_BH/profiles/res_kw_842_pu.csv) qmult = (file=C:\Users\ferna\Desktop\U_Laval\MITACS_Hydro_Quebec\10.Generic_Time_Series_Power_Flow\FlexSimNet\Network_data\Greensboro_GSO_urban_SH_BH/profiles/res_kvar_842_pu.csv)

New Loadshape.res_kw_292_pu npts= 35040 interval=0.25 mult = (file=C:\Users\ferna\Desktop\U_Laval\MITACS_Hydro_Quebec\10.Generic_Time_Series_Power_Flow\FlexSimNet\Network_data\Greensboro_GSO_urban_SH_BH/profiles/res_kw_292_pu.csv) qmult = (file=C:\Users\ferna\Desktop\U_Laval\MITACS_Hydro_Quebec\10.Generic_Time_Series_Power_Flow\FlexSimNet\Network_data\Greensboro_GSO_urban_SH_BH/profiles/res_kvar_292_pu.csv)

New Loadshape.res_kw_517_pu npts= 35040 interval=0.25 mult = (file=C:\Users\ferna\Desktop\U_Laval\MITACS_Hydro_Quebec\10.Generic_Time_Series_Power_Flow\FlexSimNet\Network_data\Greensboro_GSO_urban_SH_BH/profiles/res_kw_517_pu.csv) qmult = (file=C:\Users\ferna\Desktop\U_Laval\MITACS_Hydro_Quebec\10.Generic_Time_Series_Power_Flow\FlexSimNet\Network_data\Greensboro_GSO_urban_SH_BH/profiles/res_kvar_517_pu.csv)

New Loadshape.res_kw_879_pu npts= 35040 interval=0.25 mult = (file=C:\Users\ferna\Desktop\U_Laval\MITACS_Hydro_Quebec\10.Generic_Time_Series_Power_Flow\FlexSimNet\Network_data\Greensboro_GSO_urban_SH_BH/profiles/res_kw_879_pu.csv) qmult = (file=C:\Users\ferna\Desktop\U_Laval\MITACS_Hydro_Quebec\10.Generic_Time_Series_Power_Flow\FlexSimNet\Network_data\Greensboro_GSO_urban_SH_BH/profiles/res_kvar_879_pu.csv)

New Loadshape.res_kw_97_pu npts= 35040 interval=0.25 mult = (file=C:\Users\ferna\Desktop\U_Laval\MITACS_Hydro_Quebec\10.Generic_Time_Series_Power_Flow\FlexSimNet\Network_data\Greensboro_GSO_urban_SH_BH/profiles/res_kw_97_pu.csv) qmult = (file=C:\Users\ferna\Desktop\U_Laval\MITACS_Hydro_Quebec\10.Generic_Time_Series_Power_Flow\FlexSimNet\Network_data\Greensboro_GSO_urban_SH_BH/profiles/res_kvar_97_pu.csv)

New Loadshape.res_kw_807_pu npts= 35040 interval=0.25 mult = (file=C:\Users\ferna\Desktop\U_Laval\MITACS_Hydro_Quebec\10.Generic_Time_Series_Power_Flow\FlexSimNet\Network_data\Greensboro_GSO_urban_SH_BH/profiles/res_kw_807_pu.csv) qmult = (file=C:\Users\ferna\Desktop\U_Laval\MITACS_Hydro_Quebec\10.Generic_Time_Series_Power_Flow\FlexSimNet\Network_data\Greensboro_GSO_urban_SH_BH/profiles/res_kvar_807_pu.csv)

New Loadshape.res_kw_305_pu npts= 35040 interval=0.25 mult = (file=C:\Users\ferna\Desktop\U_Laval\MITACS_Hydro_Quebec\10.Generic_Time_Series_Power_Flow\FlexSimNet\Network_data\Greensboro_GSO_urban_SH_BH/profiles/res_kw_305_pu.csv) qmult = (file=C:\Users\ferna\Desktop\U_Laval\MITACS_Hydro_Quebec\10.Generic_Time_Series_Power_Flow\FlexSimNet\Network_data\Greensboro_GSO_urban_SH_BH/profiles/res_kvar_305_pu.csv)

New Loadshape.res_kw_452_pu npts= 35040 interval=0.25 mult = (file=C:\Users\ferna\Desktop\U_Laval\MITACS_Hydro_Quebec\10.Generic_Time_Series_Power_Flow\FlexSimNet\Network_data\Greensboro_GSO_urban_SH_BH/profiles/res_kw_452_pu.csv) qmult = (file=C:\Users\ferna\Desktop\U_Laval\MITACS_Hydro_Quebec\10.Generic_Time_Series_Power_Flow\FlexSimNet\Network_data\Greensboro_GSO_urban_SH_BH/profiles/res_kvar_452_pu.csv)

New Loadshape.res_kw_1105_pu npts= 35040 interval=0.25 mult = (file=C:\Users\ferna\Desktop\U_Laval\MITACS_Hydro_Quebec\10.Generic_Time_Series_Power_Flow\FlexSimNet\Network_data\Greensboro_GSO_urban_SH_BH/profiles/res_kw_1105_pu.csv) qmult = (file=C:\Users\ferna\Desktop\U_Laval\MITACS_Hydro_Quebec\10.Generic_Time_Series_Power_Flow\FlexSimNet\Network_data\Greensboro_GSO_urban_SH_BH/profiles/res_kvar_1105_pu.csv)

New Loadshape.res_kw_670_pu npts= 35040 interval=0.25 mult = (file=C:\Users\ferna\Desktop\U_Laval\MITACS_Hydro_Quebec\10.Generic_Time_Series_Power_Flow\FlexSimNet\Network_data\Greensboro_GSO_urban_SH_BH/profiles/res_kw_670_pu.csv) qmult = (file=C:\Users\ferna\Desktop\U_Laval\MITACS_Hydro_Quebec\10.Generic_Time_Series_Power_Flow\FlexSimNet\Network_data\Greensboro_GSO_urban_SH_BH/profiles/res_kvar_670_pu.csv)

New Loadshape.res_kw_261_pu npts= 35040 interval=0.25 mult = (file=C:\Users\ferna\Desktop\U_Laval\MITACS_Hydro_Quebec\10.Generic_Time_Series_Power_Flow\FlexSimNet\Network_data\Greensboro_GSO_urban_SH_BH/profiles/res_kw_261_pu.csv) qmult = (file=C:\Users\ferna\Desktop\U_Laval\MITACS_Hydro_Quebec\10.Generic_Time_Series_Power_Flow\FlexSimNet\Network_data\Greensboro_GSO_urban_SH_BH/profiles/res_kvar_261_pu.csv)

New Loadshape.res_kw_263_pu npts= 35040 interval=0.25 mult = (file=C:\Users\ferna\Desktop\U_Laval\MITACS_Hydro_Quebec\10.Generic_Time_Series_Power_Flow\FlexSimNet\Network_data\Greensboro_GSO_urban_SH_BH/profiles/res_kw_263_pu.csv) qmult = (file=C:\Users\ferna\Desktop\U_Laval\MITACS_Hydro_Quebec\10.Generic_Time_Series_Power_Flow\FlexSimNet\Network_data\Greensboro_GSO_urban_SH_BH/profiles/res_kvar_263_pu.csv)

New Loadshape.res_kw_470_pu npts= 35040 interval=0.25 mult = (file=C:\Users\ferna\Desktop\U_Laval\MITACS_Hydro_Quebec\10.Generic_Time_Series_Power_Flow\FlexSimNet\Network_data\Greensboro_GSO_urban_SH_BH/profiles/res_kw_470_pu.csv) qmult = (file=C:\Users\ferna\Desktop\U_Laval\MITACS_Hydro_Quebec\10.Generic_Time_Series_Power_Flow\FlexSimNet\Network_data\Greensboro_GSO_urban_SH_BH/profiles/res_kvar_470_pu.csv)

New Loadshape.res_kw_250_pu npts= 35040 interval=0.25 mult = (file=C:\Users\ferna\Desktop\U_Laval\MITACS_Hydro_Quebec\10.Generic_Time_Series_Power_Flow\FlexSimNet\Network_data\Greensboro_GSO_urban_SH_BH/profiles/res_kw_250_pu.csv) qmult = (file=C:\Users\ferna\Desktop\U_Laval\MITACS_Hydro_Quebec\10.Generic_Time_Series_Power_Flow\FlexSimNet\Network_data\Greensboro_GSO_urban_SH_BH/profiles/res_kvar_250_pu.csv)

New Loadshape.res_kw_1148_pu npts= 35040 interval=0.25 mult = (file=C:\Users\ferna\Desktop\U_Laval\MITACS_Hydro_Quebec\10.Generic_Time_Series_Power_Flow\FlexSimNet\Network_data\Greensboro_GSO_urban_SH_BH/profiles/res_kw_1148_pu.csv) qmult = (file=C:\Users\ferna\Desktop\U_Laval\MITACS_Hydro_Quebec\10.Generic_Time_Series_Power_Flow\FlexSimNet\Network_data\Greensboro_GSO_urban_SH_BH/profiles/res_kvar_1148_pu.csv)

New Loadshape.res_kw_141_pu npts= 35040 interval=0.25 mult = (file=C:\Users\ferna\Desktop\U_Laval\MITACS_Hydro_Quebec\10.Generic_Time_Series_Power_Flow\FlexSimNet\Network_data\Greensboro_GSO_urban_SH_BH/profiles/res_kw_141_pu.csv) qmult = (file=C:\Users\ferna\Desktop\U_Laval\MITACS_Hydro_Quebec\10.Generic_Time_Series_Power_Flow\FlexSimNet\Network_data\Greensboro_GSO_urban_SH_BH/profiles/res_kvar_141_pu.csv)

New Loadshape.res_kw_707_pu npts= 35040 interval=0.25 mult = (file=C:\Users\ferna\Desktop\U_Laval\MITACS_Hydro_Quebec\10.Generic_Time_Series_Power_Flow\FlexSimNet\Network_data\Greensboro_GSO_urban_SH_BH/profiles/res_kw_707_pu.csv) qmult = (file=C:\Users\ferna\Desktop\U_Laval\MITACS_Hydro_Quebec\10.Generic_Time_Series_Power_Flow\FlexSimNet\Network_data\Greensboro_GSO_urban_SH_BH/profiles/res_kvar_707_pu.csv)

New Loadshape.res_kw_953_pu npts= 35040 interval=0.25 mult = (file=C:\Users\ferna\Desktop\U_Laval\MITACS_Hydro_Quebec\10.Generic_Time_Series_Power_Flow\FlexSimNet\Network_data\Greensboro_GSO_urban_SH_BH/profiles/res_kw_953_pu.csv) qmult = (file=C:\Users\ferna\Desktop\U_Laval\MITACS_Hydro_Quebec\10.Generic_Time_Series_Power_Flow\FlexSimNet\Network_data\Greensboro_GSO_urban_SH_BH/profiles/res_kvar_953_pu.csv)

New Loadshape.res_kw_907_pu npts= 35040 interval=0.25 mult = (file=C:\Users\ferna\Desktop\U_Laval\MITACS_Hydro_Quebec\10.Generic_Time_Series_Power_Flow\FlexSimNet\Network_data\Greensboro_GSO_urban_SH_BH/profiles/res_kw_907_pu.csv) qmult = (file=C:\Users\ferna\Desktop\U_Laval\MITACS_Hydro_Quebec\10.Generic_Time_Series_Power_Flow\FlexSimNet\Network_data\Greensboro_GSO_urban_SH_BH/profiles/res_kvar_907_pu.csv)

New Loadshape.res_kw_362_pu npts= 35040 interval=0.25 mult = (file=C:\Users\ferna\Desktop\U_Laval\MITACS_Hydro_Quebec\10.Generic_Time_Series_Power_Flow\FlexSimNet\Network_data\Greensboro_GSO_urban_SH_BH/profiles/res_kw_362_pu.csv) qmult = (file=C:\Users\ferna\Desktop\U_Laval\MITACS_Hydro_Quebec\10.Generic_Time_Series_Power_Flow\FlexSimNet\Network_data\Greensboro_GSO_urban_SH_BH/profiles/res_kvar_362_pu.csv)

New Loadshape.res_kw_421_pu npts= 35040 interval=0.25 mult = (file=C:\Users\ferna\Desktop\U_Laval\MITACS_Hydro_Quebec\10.Generic_Time_Series_Power_Flow\FlexSimNet\Network_data\Greensboro_GSO_urban_SH_BH/profiles/res_kw_421_pu.csv) qmult = (file=C:\Users\ferna\Desktop\U_Laval\MITACS_Hydro_Quebec\10.Generic_Time_Series_Power_Flow\FlexSimNet\Network_data\Greensboro_GSO_urban_SH_BH/profiles/res_kvar_421_pu.csv)

New Loadshape.res_kw_532_pu npts= 35040 interval=0.25 mult = (file=C:\Users\ferna\Desktop\U_Laval\MITACS_Hydro_Quebec\10.Generic_Time_Series_Power_Flow\FlexSimNet\Network_data\Greensboro_GSO_urban_SH_BH/profiles/res_kw_532_pu.csv) qmult = (file=C:\Users\ferna\Desktop\U_Laval\MITACS_Hydro_Quebec\10.Generic_Time_Series_Power_Flow\FlexSimNet\Network_data\Greensboro_GSO_urban_SH_BH/profiles/res_kvar_532_pu.csv)

New Loadshape.res_kw_523_pu npts= 35040 interval=0.25 mult = (file=C:\Users\ferna\Desktop\U_Laval\MITACS_Hydro_Quebec\10.Generic_Time_Series_Power_Flow\FlexSimNet\Network_data\Greensboro_GSO_urban_SH_BH/profiles/res_kw_523_pu.csv) qmult = (file=C:\Users\ferna\Desktop\U_Laval\MITACS_Hydro_Quebec\10.Generic_Time_Series_Power_Flow\FlexSimNet\Network_data\Greensboro_GSO_urban_SH_BH/profiles/res_kvar_523_pu.csv)

New Loadshape.res_kw_24_pu npts= 35040 interval=0.25 mult = (file=C:\Users\ferna\Desktop\U_Laval\MITACS_Hydro_Quebec\10.Generic_Time_Series_Power_Flow\FlexSimNet\Network_data\Greensboro_GSO_urban_SH_BH/profiles/res_kw_24_pu.csv) qmult = (file=C:\Users\ferna\Desktop\U_Laval\MITACS_Hydro_Quebec\10.Generic_Time_Series_Power_Flow\FlexSimNet\Network_data\Greensboro_GSO_urban_SH_BH/profiles/res_kvar_24_pu.csv)

New Loadshape.res_kw_798_pu npts= 35040 interval=0.25 mult = (file=C:\Users\ferna\Desktop\U_Laval\MITACS_Hydro_Quebec\10.Generic_Time_Series_Power_Flow\FlexSimNet\Network_data\Greensboro_GSO_urban_SH_BH/profiles/res_kw_798_pu.csv) qmult = (file=C:\Users\ferna\Desktop\U_Laval\MITACS_Hydro_Quebec\10.Generic_Time_Series_Power_Flow\FlexSimNet\Network_data\Greensboro_GSO_urban_SH_BH/profiles/res_kvar_798_pu.csv)

New Loadshape.res_kw_76_pu npts= 35040 interval=0.25 mult = (file=C:\Users\ferna\Desktop\U_Laval\MITACS_Hydro_Quebec\10.Generic_Time_Series_Power_Flow\FlexSimNet\Network_data\Greensboro_GSO_urban_SH_BH/profiles/res_kw_76_pu.csv) qmult = (file=C:\Users\ferna\Desktop\U_Laval\MITACS_Hydro_Quebec\10.Generic_Time_Series_Power_Flow\FlexSimNet\Network_data\Greensboro_GSO_urban_SH_BH/profiles/res_kvar_76_pu.csv)

New Loadshape.res_kw_205_pu npts= 35040 interval=0.25 mult = (file=C:\Users\ferna\Desktop\U_Laval\MITACS_Hydro_Quebec\10.Generic_Time_Series_Power_Flow\FlexSimNet\Network_data\Greensboro_GSO_urban_SH_BH/profiles/res_kw_205_pu.csv) qmult = (file=C:\Users\ferna\Desktop\U_Laval\MITACS_Hydro_Quebec\10.Generic_Time_Series_Power_Flow\FlexSimNet\Network_data\Greensboro_GSO_urban_SH_BH/profiles/res_kvar_205_pu.csv)
