New Load.load_p1ulv1639_1 conn=wye bus1=p1ulv1639.1 kV=0.12 Vminpu=0.8 Vmaxpu=1.2 model=1 kW=3.469755020859998 kvar=0.8941520384931253 Phases=1 yearly=res_kw_4_pu

New Load.load_p1ulv1639_2 conn=wye bus1=p1ulv1639.2 kV=0.12 Vminpu=0.8 Vmaxpu=1.2 model=1 kW=3.469755020859998 kvar=0.8941520384931253 Phases=1 yearly=res_kw_4_pu

New Load.load_p1ulv1640_1 conn=wye bus1=p1ulv1640.1 kV=0.12 Vminpu=0.8 Vmaxpu=1.2 model=1 kW=3.469755020859998 kvar=0.8941520384931253 Phases=1 yearly=res_kw_4_pu

New Load.load_p1ulv1640_2 conn=wye bus1=p1ulv1640.2 kV=0.12 Vminpu=0.8 Vmaxpu=1.2 model=1 kW=3.469755020859998 kvar=0.8941520384931253 Phases=1 yearly=res_kw_4_pu

New Load.load_p1ulv1641_1 conn=wye bus1=p1ulv1641.1 kV=0.12 Vminpu=0.8 Vmaxpu=1.2 model=1 kW=3.8748715750127736 kvar=1.5614372175332516 Phases=1 yearly=res_kw_517_pu

New Load.load_p1ulv1641_2 conn=wye bus1=p1ulv1641.2 kV=0.12 Vminpu=0.8 Vmaxpu=1.2 model=1 kW=3.8748715750127736 kvar=1.5614372175332516 Phases=1 yearly=res_kw_517_pu

New Load.load_p1ulv1642_1 conn=wye bus1=p1ulv1642.1 kV=0.12 Vminpu=0.8 Vmaxpu=1.2 model=1 kW=2.40000228705824 kvar=1.0173787262529668 Phases=1 yearly=res_kw_1205_pu

New Load.load_p1ulv1642_2 conn=wye bus1=p1ulv1642.2 kV=0.12 Vminpu=0.8 Vmaxpu=1.2 model=1 kW=2.40000228705824 kvar=1.0173787262529668 Phases=1 yearly=res_kw_1205_pu

New Load.load_p1ulv1643_1 conn=wye bus1=p1ulv1643.1 kV=0.12 Vminpu=0.8 Vmaxpu=1.2 model=1 kW=3.8748715750127736 kvar=1.5614372175332516 Phases=1 yearly=res_kw_517_pu

New Load.load_p1ulv1643_2 conn=wye bus1=p1ulv1643.2 kV=0.12 Vminpu=0.8 Vmaxpu=1.2 model=1 kW=3.8748715750127736 kvar=1.5614372175332516 Phases=1 yearly=res_kw_517_pu

New Load.load_p1ulv1644_1 conn=wye bus1=p1ulv1644.1 kV=0.12 Vminpu=0.8 Vmaxpu=1.2 model=1 kW=8.020736002000627 kvar=0.8077597125403054 Phases=1 yearly=res_kw_411_pu

New Load.load_p1ulv1644_2 conn=wye bus1=p1ulv1644.2 kV=0.12 Vminpu=0.8 Vmaxpu=1.2 model=1 kW=8.020736002000627 kvar=0.8077597125403054 Phases=1 yearly=res_kw_411_pu

New Load.load_p1ulv1645_1 conn=wye bus1=p1ulv1645.1 kV=0.12 Vminpu=0.8 Vmaxpu=1.2 model=1 kW=3.6844020253442458 kvar=1.4451491397155931 Phases=1 yearly=res_kw_1258_pu

New Load.load_p1ulv1645_2 conn=wye bus1=p1ulv1645.2 kV=0.12 Vminpu=0.8 Vmaxpu=1.2 model=1 kW=3.6844020253442458 kvar=1.4451491397155931 Phases=1 yearly=res_kw_1258_pu

New Load.load_p1ulv1646_1 conn=wye bus1=p1ulv1646.1 kV=0.12 Vminpu=0.8 Vmaxpu=1.2 model=1 kW=4.708977442537992 kvar=0.5396715316626463 Phases=1 yearly=res_kw_1138_pu

New Load.load_p1ulv1646_2 conn=wye bus1=p1ulv1646.2 kV=0.12 Vminpu=0.8 Vmaxpu=1.2 model=1 kW=4.708977442537992 kvar=0.5396715316626463 Phases=1 yearly=res_kw_1138_pu

New Load.load_p1ulv1647_1 conn=wye bus1=p1ulv1647.1 kV=0.12 Vminpu=0.8 Vmaxpu=1.2 model=1 kW=5.02113589877799 kvar=1.330838974667839 Phases=1 yearly=res_kw_207_pu

New Load.load_p1ulv1647_2 conn=wye bus1=p1ulv1647.2 kV=0.12 Vminpu=0.8 Vmaxpu=1.2 model=1 kW=5.02113589877799 kvar=1.330838974667839 Phases=1 yearly=res_kw_207_pu

New Load.load_p1ulv1648_1 conn=wye bus1=p1ulv1648.1 kV=0.12 Vminpu=0.8 Vmaxpu=1.2 model=1 kW=5.163806898070874 kvar=0.9381412991116911 Phases=1 yearly=res_kw_98_pu

New Load.load_p1ulv1648_2 conn=wye bus1=p1ulv1648.2 kV=0.12 Vminpu=0.8 Vmaxpu=1.2 model=1 kW=5.163806898070874 kvar=0.9381412991116911 Phases=1 yearly=res_kw_98_pu

New Load.load_p1ulv1649_1 conn=wye bus1=p1ulv1649.1 kV=0.12 Vminpu=0.8 Vmaxpu=1.2 model=1 kW=3.4468581914223817 kvar=1.1411197390818253 Phases=1 yearly=res_kw_250_pu

New Load.load_p1ulv1649_2 conn=wye bus1=p1ulv1649.2 kV=0.12 Vminpu=0.8 Vmaxpu=1.2 model=1 kW=3.4468581914223817 kvar=1.1411197390818253 Phases=1 yearly=res_kw_250_pu

New Load.load_p1ulv1650_1 conn=wye bus1=p1ulv1650.1 kV=0.12 Vminpu=0.8 Vmaxpu=1.2 model=1 kW=2.40000228705824 kvar=1.0173787262529668 Phases=1 yearly=res_kw_1205_pu

New Load.load_p1ulv1650_2 conn=wye bus1=p1ulv1650.2 kV=0.12 Vminpu=0.8 Vmaxpu=1.2 model=1 kW=2.40000228705824 kvar=1.0173787262529668 Phases=1 yearly=res_kw_1205_pu

New Load.load_p1ulv1651_1 conn=wye bus1=p1ulv1651.1 kV=0.12 Vminpu=0.8 Vmaxpu=1.2 model=1 kW=3.8748715750127736 kvar=1.5614372175332516 Phases=1 yearly=res_kw_517_pu

New Load.load_p1ulv1651_2 conn=wye bus1=p1ulv1651.2 kV=0.12 Vminpu=0.8 Vmaxpu=1.2 model=1 kW=3.8748715750127736 kvar=1.5614372175332516 Phases=1 yearly=res_kw_517_pu

New Load.load_p1ulv1652_1 conn=wye bus1=p1ulv1652.1 kV=0.12 Vminpu=0.8 Vmaxpu=1.2 model=1 kW=2.6241521841182514 kvar=0.8429304779950015 Phases=1 yearly=res_kw_33_pu

New Load.load_p1ulv1652_2 conn=wye bus1=p1ulv1652.2 kV=0.12 Vminpu=0.8 Vmaxpu=1.2 model=1 kW=2.6241521841182514 kvar=0.8429304779950015 Phases=1 yearly=res_kw_33_pu

New Load.load_p1ulv1653_1 conn=wye bus1=p1ulv1653.1 kV=0.12 Vminpu=0.8 Vmaxpu=1.2 model=1 kW=6.139488924452324 kvar=1.0282575631325632 Phases=1 yearly=res_kw_421_pu

New Load.load_p1ulv1653_2 conn=wye bus1=p1ulv1653.2 kV=0.12 Vminpu=0.8 Vmaxpu=1.2 model=1 kW=6.139488924452324 kvar=1.0282575631325632 Phases=1 yearly=res_kw_421_pu

New Load.load_p1ulv1654_1 conn=wye bus1=p1ulv1654.1 kV=0.12 Vminpu=0.8 Vmaxpu=1.2 model=1 kW=3.469521951913567 kvar=0.9490620687569232 Phases=1 yearly=res_kw_825_pu

New Load.load_p1ulv1654_2 conn=wye bus1=p1ulv1654.2 kV=0.12 Vminpu=0.8 Vmaxpu=1.2 model=1 kW=3.469521951913567 kvar=0.9490620687569232 Phases=1 yearly=res_kw_825_pu

New Load.load_p1ulv1655_1 conn=wye bus1=p1ulv1655.1 kV=0.12 Vminpu=0.8 Vmaxpu=1.2 model=1 kW=2.6241521841182514 kvar=0.8429304779950015 Phases=1 yearly=res_kw_33_pu

New Load.load_p1ulv1655_2 conn=wye bus1=p1ulv1655.2 kV=0.12 Vminpu=0.8 Vmaxpu=1.2 model=1 kW=2.6241521841182514 kvar=0.8429304779950015 Phases=1 yearly=res_kw_33_pu

New Load.load_p1ulv1656_1 conn=wye bus1=p1ulv1656.1 kV=0.12 Vminpu=0.8 Vmaxpu=1.2 model=1 kW=5.004398133545832 kvar=1.6986912664433456 Phases=1 yearly=res_kw_101_pu

New Load.load_p1ulv1656_2 conn=wye bus1=p1ulv1656.2 kV=0.12 Vminpu=0.8 Vmaxpu=1.2 model=1 kW=5.004398133545832 kvar=1.6986912664433456 Phases=1 yearly=res_kw_101_pu

New Load.load_p1ulv1657_1 conn=wye bus1=p1ulv1657.1 kV=0.12 Vminpu=0.8 Vmaxpu=1.2 model=1 kW=3.4468581914223817 kvar=1.1411197390818253 Phases=1 yearly=res_kw_250_pu

New Load.load_p1ulv1657_2 conn=wye bus1=p1ulv1657.2 kV=0.12 Vminpu=0.8 Vmaxpu=1.2 model=1 kW=3.4468581914223817 kvar=1.1411197390818253 Phases=1 yearly=res_kw_250_pu

New Load.load_p1ulv1658_1 conn=wye bus1=p1ulv1658.1 kV=0.12 Vminpu=0.8 Vmaxpu=1.2 model=1 kW=7.259772519581312 kvar=1.3210086815250959 Phases=1 yearly=res_kw_128_pu

New Load.load_p1ulv1658_2 conn=wye bus1=p1ulv1658.2 kV=0.12 Vminpu=0.8 Vmaxpu=1.2 model=1 kW=7.259772519581312 kvar=1.3210086815250959 Phases=1 yearly=res_kw_128_pu

New Load.load_p1ulv1660_1 conn=wye bus1=p1ulv1660.1 kV=0.12 Vminpu=0.8 Vmaxpu=1.2 model=1 kW=4.359410160991208 kvar=0.7703346328307125 Phases=1 yearly=res_kw_470_pu

New Load.load_p1ulv1660_2 conn=wye bus1=p1ulv1660.2 kV=0.12 Vminpu=0.8 Vmaxpu=1.2 model=1 kW=4.359410160991208 kvar=0.7703346328307125 Phases=1 yearly=res_kw_470_pu

New Load.load_p1ulv1661_1 conn=wye bus1=p1ulv1661.1 kV=0.12 Vminpu=0.8 Vmaxpu=1.2 model=1 kW=5.593814709601456 kvar=0.9267363329025571 Phases=1 yearly=res_kw_561_pu

New Load.load_p1ulv1661_2 conn=wye bus1=p1ulv1661.2 kV=0.12 Vminpu=0.8 Vmaxpu=1.2 model=1 kW=5.593814709601456 kvar=0.9267363329025571 Phases=1 yearly=res_kw_561_pu

New Load.load_p1ulv1663_1 conn=wye bus1=p1ulv1663.1 kV=0.12 Vminpu=0.8 Vmaxpu=1.2 model=1 kW=3.8748715750127736 kvar=1.5614372175332516 Phases=1 yearly=res_kw_517_pu

New Load.load_p1ulv1663_2 conn=wye bus1=p1ulv1663.2 kV=0.12 Vminpu=0.8 Vmaxpu=1.2 model=1 kW=3.8748715750127736 kvar=1.5614372175332516 Phases=1 yearly=res_kw_517_pu

New Load.load_p1ulv1664_1 conn=wye bus1=p1ulv1664.1 kV=0.12 Vminpu=0.8 Vmaxpu=1.2 model=1 kW=3.469755020859998 kvar=0.8941520384931253 Phases=1 yearly=res_kw_4_pu

New Load.load_p1ulv1664_2 conn=wye bus1=p1ulv1664.2 kV=0.12 Vminpu=0.8 Vmaxpu=1.2 model=1 kW=3.469755020859998 kvar=0.8941520384931253 Phases=1 yearly=res_kw_4_pu

New Load.load_p1ulv1665_1 conn=wye bus1=p1ulv1665.1 kV=0.12 Vminpu=0.8 Vmaxpu=1.2 model=1 kW=3.6844020253442458 kvar=1.4451491397155931 Phases=1 yearly=res_kw_1258_pu

New Load.load_p1ulv1665_2 conn=wye bus1=p1ulv1665.2 kV=0.12 Vminpu=0.8 Vmaxpu=1.2 model=1 kW=3.6844020253442458 kvar=1.4451491397155931 Phases=1 yearly=res_kw_1258_pu

New Load.load_p1ulv1666_1 conn=wye bus1=p1ulv1666.1 kV=0.12 Vminpu=0.8 Vmaxpu=1.2 model=1 kW=2.40000228705824 kvar=1.0173787262529668 Phases=1 yearly=res_kw_1205_pu

New Load.load_p1ulv1666_2 conn=wye bus1=p1ulv1666.2 kV=0.12 Vminpu=0.8 Vmaxpu=1.2 model=1 kW=2.40000228705824 kvar=1.0173787262529668 Phases=1 yearly=res_kw_1205_pu

New Load.load_p1ulv1667_1 conn=wye bus1=p1ulv1667.1 kV=0.12 Vminpu=0.8 Vmaxpu=1.2 model=1 kW=8.038199047739793 kvar=1.8120887952584321 Phases=1 yearly=res_kw_169_pu

New Load.load_p1ulv1667_2 conn=wye bus1=p1ulv1667.2 kV=0.12 Vminpu=0.8 Vmaxpu=1.2 model=1 kW=8.038199047739793 kvar=1.8120887952584321 Phases=1 yearly=res_kw_169_pu

New Load.load_p1ulv1668_1 conn=wye bus1=p1ulv1668.1 kV=0.12 Vminpu=0.8 Vmaxpu=1.2 model=1 kW=11.457721527492426 kvar=1.3801854390555242 Phases=1 yearly=res_kw_861_pu

New Load.load_p1ulv1668_2 conn=wye bus1=p1ulv1668.2 kV=0.12 Vminpu=0.8 Vmaxpu=1.2 model=1 kW=11.457721527492426 kvar=1.3801854390555242 Phases=1 yearly=res_kw_861_pu

New Load.load_p1ulv1669_1 conn=wye bus1=p1ulv1669.1 kV=0.12 Vminpu=0.8 Vmaxpu=1.2 model=1 kW=2.40000228705824 kvar=1.0173787262529668 Phases=1 yearly=res_kw_1205_pu

New Load.load_p1ulv1669_2 conn=wye bus1=p1ulv1669.2 kV=0.12 Vminpu=0.8 Vmaxpu=1.2 model=1 kW=2.40000228705824 kvar=1.0173787262529668 Phases=1 yearly=res_kw_1205_pu

New Load.load_p1ulv1670_1 conn=wye bus1=p1ulv1670.1 kV=0.12 Vminpu=0.8 Vmaxpu=1.2 model=1 kW=7.721615461137303 kvar=1.7536039230317741 Phases=1 yearly=res_kw_1013_pu

New Load.load_p1ulv1670_2 conn=wye bus1=p1ulv1670.2 kV=0.12 Vminpu=0.8 Vmaxpu=1.2 model=1 kW=7.721615461137303 kvar=1.7536039230317741 Phases=1 yearly=res_kw_1013_pu

New Load.load_p1ulv1671_1 conn=wye bus1=p1ulv1671.1 kV=0.12 Vminpu=0.8 Vmaxpu=1.2 model=1 kW=5.723135606665604 kvar=1.5038194991101048 Phases=1 yearly=res_kw_1228_pu

New Load.load_p1ulv1671_2 conn=wye bus1=p1ulv1671.2 kV=0.12 Vminpu=0.8 Vmaxpu=1.2 model=1 kW=5.723135606665604 kvar=1.5038194991101048 Phases=1 yearly=res_kw_1228_pu

New Load.load_p1ulv1672_1 conn=wye bus1=p1ulv1672.1 kV=0.12 Vminpu=0.8 Vmaxpu=1.2 model=1 kW=3.6844020253442458 kvar=1.4451491397155931 Phases=1 yearly=res_kw_1258_pu

New Load.load_p1ulv1672_2 conn=wye bus1=p1ulv1672.2 kV=0.12 Vminpu=0.8 Vmaxpu=1.2 model=1 kW=3.6844020253442458 kvar=1.4451491397155931 Phases=1 yearly=res_kw_1258_pu

New Load.load_p1ulv1673_1 conn=wye bus1=p1ulv1673.1 kV=0.12 Vminpu=0.8 Vmaxpu=1.2 model=1 kW=3.469755020859998 kvar=0.8941520384931253 Phases=1 yearly=res_kw_4_pu

New Load.load_p1ulv1673_2 conn=wye bus1=p1ulv1673.2 kV=0.12 Vminpu=0.8 Vmaxpu=1.2 model=1 kW=3.469755020859998 kvar=0.8941520384931253 Phases=1 yearly=res_kw_4_pu

New Load.load_p1ulv1674_1 conn=wye bus1=p1ulv1674.1 kV=0.12 Vminpu=0.8 Vmaxpu=1.2 model=1 kW=2.6241521841182514 kvar=0.8429304779950015 Phases=1 yearly=res_kw_33_pu

New Load.load_p1ulv1674_2 conn=wye bus1=p1ulv1674.2 kV=0.12 Vminpu=0.8 Vmaxpu=1.2 model=1 kW=2.6241521841182514 kvar=0.8429304779950015 Phases=1 yearly=res_kw_33_pu

New Load.load_p1ulv1675_1 conn=wye bus1=p1ulv1675.1 kV=0.12 Vminpu=0.8 Vmaxpu=1.2 model=1 kW=3.0502193323758338 kvar=0.7068547525403183 Phases=1 yearly=res_kw_407_pu

New Load.load_p1ulv1675_2 conn=wye bus1=p1ulv1675.2 kV=0.12 Vminpu=0.8 Vmaxpu=1.2 model=1 kW=3.0502193323758338 kvar=0.7068547525403183 Phases=1 yearly=res_kw_407_pu

New Load.load_p1ulv1676_1 conn=wye bus1=p1ulv1676.1 kV=0.12 Vminpu=0.8 Vmaxpu=1.2 model=1 kW=4.658663502989286 kvar=1.3388389434895354 Phases=1 yearly=res_kw_182_pu

New Load.load_p1ulv1676_2 conn=wye bus1=p1ulv1676.2 kV=0.12 Vminpu=0.8 Vmaxpu=1.2 model=1 kW=4.658663502989286 kvar=1.3388389434895354 Phases=1 yearly=res_kw_182_pu

New Load.load_p1ulv1677_1 conn=wye bus1=p1ulv1677.1 kV=0.12 Vminpu=0.8 Vmaxpu=1.2 model=1 kW=2.40000228705824 kvar=1.0173787262529668 Phases=1 yearly=res_kw_1205_pu

New Load.load_p1ulv1677_2 conn=wye bus1=p1ulv1677.2 kV=0.12 Vminpu=0.8 Vmaxpu=1.2 model=1 kW=2.40000228705824 kvar=1.0173787262529668 Phases=1 yearly=res_kw_1205_pu

New Load.load_p1ulv1678_1 conn=wye bus1=p1ulv1678.1 kV=0.12 Vminpu=0.8 Vmaxpu=1.2 model=1 kW=5.5396149838334106 kvar=1.3495096504699533 Phases=1 yearly=res_kw_1273_pu

New Load.load_p1ulv1678_2 conn=wye bus1=p1ulv1678.2 kV=0.12 Vminpu=0.8 Vmaxpu=1.2 model=1 kW=5.5396149838334106 kvar=1.3495096504699533 Phases=1 yearly=res_kw_1273_pu

New Load.load_p1ulv1679_1 conn=wye bus1=p1ulv1679.1 kV=0.12 Vminpu=0.8 Vmaxpu=1.2 model=1 kW=3.8748715750127736 kvar=1.5614372175332516 Phases=1 yearly=res_kw_517_pu

New Load.load_p1ulv1679_2 conn=wye bus1=p1ulv1679.2 kV=0.12 Vminpu=0.8 Vmaxpu=1.2 model=1 kW=3.8748715750127736 kvar=1.5614372175332516 Phases=1 yearly=res_kw_517_pu

New Load.load_p1ulv1680_1 conn=wye bus1=p1ulv1680.1 kV=0.12 Vminpu=0.8 Vmaxpu=1.2 model=1 kW=7.259772519581312 kvar=1.3210086815250959 Phases=1 yearly=res_kw_128_pu

New Load.load_p1ulv1680_2 conn=wye bus1=p1ulv1680.2 kV=0.12 Vminpu=0.8 Vmaxpu=1.2 model=1 kW=7.259772519581312 kvar=1.3210086815250959 Phases=1 yearly=res_kw_128_pu

New Load.load_p1ulv1681_1 conn=wye bus1=p1ulv1681.1 kV=0.12 Vminpu=0.8 Vmaxpu=1.2 model=1 kW=6.139488924452324 kvar=1.0282575631325632 Phases=1 yearly=res_kw_421_pu

New Load.load_p1ulv1681_2 conn=wye bus1=p1ulv1681.2 kV=0.12 Vminpu=0.8 Vmaxpu=1.2 model=1 kW=6.139488924452324 kvar=1.0282575631325632 Phases=1 yearly=res_kw_421_pu

New Load.load_p1ulv1682_1 conn=wye bus1=p1ulv1682.1 kV=0.12 Vminpu=0.8 Vmaxpu=1.2 model=1 kW=3.469755020859998 kvar=0.8941520384931253 Phases=1 yearly=res_kw_4_pu

New Load.load_p1ulv1682_2 conn=wye bus1=p1ulv1682.2 kV=0.12 Vminpu=0.8 Vmaxpu=1.2 model=1 kW=3.469755020859998 kvar=0.8941520384931253 Phases=1 yearly=res_kw_4_pu

New Load.load_p1ulv1683_1 conn=wye bus1=p1ulv1683.1 kV=0.12 Vminpu=0.8 Vmaxpu=1.2 model=1 kW=2.605021030189827 kvar=1.0007509371876184 Phases=1 yearly=res_kw_24_pu

New Load.load_p1ulv1683_2 conn=wye bus1=p1ulv1683.2 kV=0.12 Vminpu=0.8 Vmaxpu=1.2 model=1 kW=2.605021030189827 kvar=1.0007509371876184 Phases=1 yearly=res_kw_24_pu

New Load.load_p1ulv1684_1 conn=wye bus1=p1ulv1684.1 kV=0.12 Vminpu=0.8 Vmaxpu=1.2 model=1 kW=4.78815623948431 kvar=1.2110296754961107 Phases=1 yearly=res_kw_842_pu

New Load.load_p1ulv1684_2 conn=wye bus1=p1ulv1684.2 kV=0.12 Vminpu=0.8 Vmaxpu=1.2 model=1 kW=4.78815623948431 kvar=1.2110296754961107 Phases=1 yearly=res_kw_842_pu

New Load.load_p1ulv1685_1 conn=wye bus1=p1ulv1685.1 kV=0.12 Vminpu=0.8 Vmaxpu=1.2 model=1 kW=2.40000228705824 kvar=1.0173787262529668 Phases=1 yearly=res_kw_1205_pu

New Load.load_p1ulv1685_2 conn=wye bus1=p1ulv1685.2 kV=0.12 Vminpu=0.8 Vmaxpu=1.2 model=1 kW=2.40000228705824 kvar=1.0173787262529668 Phases=1 yearly=res_kw_1205_pu

New Load.load_p1ulv1686_1 conn=wye bus1=p1ulv1686.1 kV=0.12 Vminpu=0.8 Vmaxpu=1.2 model=1 kW=3.8748715750127736 kvar=1.5614372175332516 Phases=1 yearly=res_kw_517_pu

New Load.load_p1ulv1686_2 conn=wye bus1=p1ulv1686.2 kV=0.12 Vminpu=0.8 Vmaxpu=1.2 model=1 kW=3.8748715750127736 kvar=1.5614372175332516 Phases=1 yearly=res_kw_517_pu

New Load.load_p1ulv1687_1 conn=wye bus1=p1ulv1687.1 kV=0.12 Vminpu=0.8 Vmaxpu=1.2 model=1 kW=3.789884331965197 kvar=1.0036576715582408 Phases=1 yearly=res_kw_670_pu

New Load.load_p1ulv1687_2 conn=wye bus1=p1ulv1687.2 kV=0.12 Vminpu=0.8 Vmaxpu=1.2 model=1 kW=3.789884331965197 kvar=1.0036576715582408 Phases=1 yearly=res_kw_670_pu

New Load.load_p1ulv1688_1 conn=wye bus1=p1ulv1688.1 kV=0.12 Vminpu=0.8 Vmaxpu=1.2 model=1 kW=2.40000228705824 kvar=1.0173787262529668 Phases=1 yearly=res_kw_1205_pu

New Load.load_p1ulv1688_2 conn=wye bus1=p1ulv1688.2 kV=0.12 Vminpu=0.8 Vmaxpu=1.2 model=1 kW=2.40000228705824 kvar=1.0173787262529668 Phases=1 yearly=res_kw_1205_pu

New Load.load_p1ulv1689_1 conn=wye bus1=p1ulv1689.1 kV=0.12 Vminpu=0.8 Vmaxpu=1.2 model=1 kW=5.436729579526792 kvar=1.2488470964899614 Phases=1 yearly=res_kw_454_pu

New Load.load_p1ulv1689_2 conn=wye bus1=p1ulv1689.2 kV=0.12 Vminpu=0.8 Vmaxpu=1.2 model=1 kW=5.436729579526792 kvar=1.2488470964899614 Phases=1 yearly=res_kw_454_pu

New Load.load_p1ulv1690_1 conn=wye bus1=p1ulv1690.1 kV=0.12 Vminpu=0.8 Vmaxpu=1.2 model=1 kW=3.6844020253442458 kvar=1.4451491397155931 Phases=1 yearly=res_kw_1258_pu

New Load.load_p1ulv1690_2 conn=wye bus1=p1ulv1690.2 kV=0.12 Vminpu=0.8 Vmaxpu=1.2 model=1 kW=3.6844020253442458 kvar=1.4451491397155931 Phases=1 yearly=res_kw_1258_pu

New Load.load_p1ulv1691_1 conn=wye bus1=p1ulv1691.1 kV=0.12 Vminpu=0.8 Vmaxpu=1.2 model=1 kW=3.0502193323758338 kvar=0.7068547525403183 Phases=1 yearly=res_kw_407_pu

New Load.load_p1ulv1691_2 conn=wye bus1=p1ulv1691.2 kV=0.12 Vminpu=0.8 Vmaxpu=1.2 model=1 kW=3.0502193323758338 kvar=0.7068547525403183 Phases=1 yearly=res_kw_407_pu

New Load.load_p1ulv1692_1 conn=wye bus1=p1ulv1692.1 kV=0.12 Vminpu=0.8 Vmaxpu=1.2 model=1 kW=5.166227040370808 kvar=0.941312930764753 Phases=1 yearly=res_kw_852_pu

New Load.load_p1ulv1692_2 conn=wye bus1=p1ulv1692.2 kV=0.12 Vminpu=0.8 Vmaxpu=1.2 model=1 kW=5.166227040370808 kvar=0.941312930764753 Phases=1 yearly=res_kw_852_pu

New Load.load_p1ulv1693_1 conn=wye bus1=p1ulv1693.1 kV=0.12 Vminpu=0.8 Vmaxpu=1.2 model=1 kW=6.224817813202313 kvar=1.7553010009693135 Phases=1 yearly=res_kw_710_pu

New Load.load_p1ulv1693_2 conn=wye bus1=p1ulv1693.2 kV=0.12 Vminpu=0.8 Vmaxpu=1.2 model=1 kW=6.224817813202313 kvar=1.7553010009693135 Phases=1 yearly=res_kw_710_pu

New Load.load_p1ulv1694_1 conn=wye bus1=p1ulv1694.1 kV=0.12 Vminpu=0.8 Vmaxpu=1.2 model=1 kW=3.789884331965197 kvar=1.0036576715582408 Phases=1 yearly=res_kw_670_pu

New Load.load_p1ulv1694_2 conn=wye bus1=p1ulv1694.2 kV=0.12 Vminpu=0.8 Vmaxpu=1.2 model=1 kW=3.789884331965197 kvar=1.0036576715582408 Phases=1 yearly=res_kw_670_pu

New Load.load_p1ulv1695_1 conn=wye bus1=p1ulv1695.1 kV=0.12 Vminpu=0.8 Vmaxpu=1.2 model=1 kW=4.615759315917863 kvar=1.2136246618425777 Phases=1 yearly=res_kw_1190_pu

New Load.load_p1ulv1695_2 conn=wye bus1=p1ulv1695.2 kV=0.12 Vminpu=0.8 Vmaxpu=1.2 model=1 kW=4.615759315917863 kvar=1.2136246618425777 Phases=1 yearly=res_kw_1190_pu

New Load.load_p1ulv1696_1 conn=wye bus1=p1ulv1696.1 kV=0.12 Vminpu=0.8 Vmaxpu=1.2 model=1 kW=7.820072877358693 kvar=1.759853089528969 Phases=1 yearly=res_kw_97_pu

New Load.load_p1ulv1696_2 conn=wye bus1=p1ulv1696.2 kV=0.12 Vminpu=0.8 Vmaxpu=1.2 model=1 kW=7.820072877358693 kvar=1.759853089528969 Phases=1 yearly=res_kw_97_pu

New Load.load_p1ulv1697_1 conn=wye bus1=p1ulv1697.1 kV=0.12 Vminpu=0.8 Vmaxpu=1.2 model=1 kW=7.259772519581312 kvar=1.3210086815250959 Phases=1 yearly=res_kw_128_pu

New Load.load_p1ulv1697_2 conn=wye bus1=p1ulv1697.2 kV=0.12 Vminpu=0.8 Vmaxpu=1.2 model=1 kW=7.259772519581312 kvar=1.3210086815250959 Phases=1 yearly=res_kw_128_pu

New Load.load_p1ulv1698_1 conn=wye bus1=p1ulv1698.1 kV=0.12 Vminpu=0.8 Vmaxpu=1.2 model=1 kW=4.746269311492783 kvar=1.3210751032938461 Phases=1 yearly=res_kw_1080_pu

New Load.load_p1ulv1698_2 conn=wye bus1=p1ulv1698.2 kV=0.12 Vminpu=0.8 Vmaxpu=1.2 model=1 kW=4.746269311492783 kvar=1.3210751032938461 Phases=1 yearly=res_kw_1080_pu

New Load.load_p1ulv1699_1 conn=wye bus1=p1ulv1699.1 kV=0.12 Vminpu=0.8 Vmaxpu=1.2 model=1 kW=11.457721527492426 kvar=1.3801854390555242 Phases=1 yearly=res_kw_861_pu

New Load.load_p1ulv1699_2 conn=wye bus1=p1ulv1699.2 kV=0.12 Vminpu=0.8 Vmaxpu=1.2 model=1 kW=11.457721527492426 kvar=1.3801854390555242 Phases=1 yearly=res_kw_861_pu

New Load.load_p1ulv1700_1 conn=wye bus1=p1ulv1700.1 kV=0.12 Vminpu=0.8 Vmaxpu=1.2 model=1 kW=5.436729579526792 kvar=1.2488470964899614 Phases=1 yearly=res_kw_454_pu

New Load.load_p1ulv1700_2 conn=wye bus1=p1ulv1700.2 kV=0.12 Vminpu=0.8 Vmaxpu=1.2 model=1 kW=5.436729579526792 kvar=1.2488470964899614 Phases=1 yearly=res_kw_454_pu

New Load.load_p1ulv1701_1 conn=wye bus1=p1ulv1701.1 kV=0.12 Vminpu=0.8 Vmaxpu=1.2 model=1 kW=7.259772519581312 kvar=1.3210086815250959 Phases=1 yearly=res_kw_128_pu

New Load.load_p1ulv1701_2 conn=wye bus1=p1ulv1701.2 kV=0.12 Vminpu=0.8 Vmaxpu=1.2 model=1 kW=7.259772519581312 kvar=1.3210086815250959 Phases=1 yearly=res_kw_128_pu

New Load.load_p1ulv1702_1 conn=wye bus1=p1ulv1702.1 kV=0.12 Vminpu=0.8 Vmaxpu=1.2 model=1 kW=5.991917116566147 kvar=1.6692124001399427 Phases=1 yearly=res_kw_314_pu

New Load.load_p1ulv1702_2 conn=wye bus1=p1ulv1702.2 kV=0.12 Vminpu=0.8 Vmaxpu=1.2 model=1 kW=5.991917116566147 kvar=1.6692124001399427 Phases=1 yearly=res_kw_314_pu

New Load.load_p1ulv1703_1 conn=wye bus1=p1ulv1703.1 kV=0.12 Vminpu=0.8 Vmaxpu=1.2 model=1 kW=2.6241521841182514 kvar=0.8429304779950015 Phases=1 yearly=res_kw_33_pu

New Load.load_p1ulv1703_2 conn=wye bus1=p1ulv1703.2 kV=0.12 Vminpu=0.8 Vmaxpu=1.2 model=1 kW=2.6241521841182514 kvar=0.8429304779950015 Phases=1 yearly=res_kw_33_pu

New Load.load_p1ulv1704_1 conn=wye bus1=p1ulv1704.1 kV=0.12 Vminpu=0.8 Vmaxpu=1.2 model=1 kW=4.746269311492783 kvar=1.3210751032938461 Phases=1 yearly=res_kw_1080_pu

New Load.load_p1ulv1704_2 conn=wye bus1=p1ulv1704.2 kV=0.12 Vminpu=0.8 Vmaxpu=1.2 model=1 kW=4.746269311492783 kvar=1.3210751032938461 Phases=1 yearly=res_kw_1080_pu

New Load.load_p1ulv1705_1 conn=wye bus1=p1ulv1705.1 kV=0.12 Vminpu=0.8 Vmaxpu=1.2 model=1 kW=3.6844020253442458 kvar=1.4451491397155931 Phases=1 yearly=res_kw_1258_pu

New Load.load_p1ulv1705_2 conn=wye bus1=p1ulv1705.2 kV=0.12 Vminpu=0.8 Vmaxpu=1.2 model=1 kW=3.6844020253442458 kvar=1.4451491397155931 Phases=1 yearly=res_kw_1258_pu

New Load.load_p1ulv1706_1 conn=wye bus1=p1ulv1706.1 kV=0.12 Vminpu=0.8 Vmaxpu=1.2 model=1 kW=3.4468581914223817 kvar=1.1411197390818253 Phases=1 yearly=res_kw_250_pu

New Load.load_p1ulv1706_2 conn=wye bus1=p1ulv1706.2 kV=0.12 Vminpu=0.8 Vmaxpu=1.2 model=1 kW=3.4468581914223817 kvar=1.1411197390818253 Phases=1 yearly=res_kw_250_pu

New Load.load_p1ulv1707_1 conn=wye bus1=p1ulv1707.1 kV=0.12 Vminpu=0.8 Vmaxpu=1.2 model=1 kW=8.306306585300508 kvar=2.323837178317677 Phases=1 yearly=res_kw_170_pu

New Load.load_p1ulv1707_2 conn=wye bus1=p1ulv1707.2 kV=0.12 Vminpu=0.8 Vmaxpu=1.2 model=1 kW=8.306306585300508 kvar=2.323837178317677 Phases=1 yearly=res_kw_170_pu

New Load.load_p1ulv1708_1 conn=wye bus1=p1ulv1708.1 kV=0.12 Vminpu=0.8 Vmaxpu=1.2 model=1 kW=3.3641909207712115 kvar=0.9284266244461494 Phases=1 yearly=res_kw_523_pu

New Load.load_p1ulv1708_2 conn=wye bus1=p1ulv1708.2 kV=0.12 Vminpu=0.8 Vmaxpu=1.2 model=1 kW=3.3641909207712115 kvar=0.9284266244461494 Phases=1 yearly=res_kw_523_pu

New Load.load_p1ulv1709_1 conn=wye bus1=p1ulv1709.1 kV=0.12 Vminpu=0.8 Vmaxpu=1.2 model=1 kW=7.088530083600876 kvar=2.6134476319600712 Phases=1 yearly=res_kw_267_pu

New Load.load_p1ulv1709_2 conn=wye bus1=p1ulv1709.2 kV=0.12 Vminpu=0.8 Vmaxpu=1.2 model=1 kW=7.088530083600876 kvar=2.6134476319600712 Phases=1 yearly=res_kw_267_pu

New Load.load_p1ulv1710_1 conn=wye bus1=p1ulv1710.1 kV=0.12 Vminpu=0.8 Vmaxpu=1.2 model=1 kW=5.723135606665604 kvar=1.5038194991101048 Phases=1 yearly=res_kw_1228_pu

New Load.load_p1ulv1710_2 conn=wye bus1=p1ulv1710.2 kV=0.12 Vminpu=0.8 Vmaxpu=1.2 model=1 kW=5.723135606665604 kvar=1.5038194991101048 Phases=1 yearly=res_kw_1228_pu

New Load.load_p1ulv1711_1 conn=wye bus1=p1ulv1711.1 kV=0.12 Vminpu=0.8 Vmaxpu=1.2 model=1 kW=5.474205814350271 kvar=1.42655615644843 Phases=1 yearly=res_kw_616_pu

New Load.load_p1ulv1711_2 conn=wye bus1=p1ulv1711.2 kV=0.12 Vminpu=0.8 Vmaxpu=1.2 model=1 kW=5.474205814350271 kvar=1.42655615644843 Phases=1 yearly=res_kw_616_pu

New Load.load_p1ulv1712_1 conn=wye bus1=p1ulv1712.1 kV=0.12 Vminpu=0.8 Vmaxpu=1.2 model=1 kW=6.139488924452324 kvar=1.0282575631325632 Phases=1 yearly=res_kw_421_pu

New Load.load_p1ulv1712_2 conn=wye bus1=p1ulv1712.2 kV=0.12 Vminpu=0.8 Vmaxpu=1.2 model=1 kW=6.139488924452324 kvar=1.0282575631325632 Phases=1 yearly=res_kw_421_pu

New Load.load_p1ulv1713_1 conn=wye bus1=p1ulv1713.1 kV=0.12 Vminpu=0.8 Vmaxpu=1.2 model=1 kW=6.139488924452324 kvar=1.0282575631325632 Phases=1 yearly=res_kw_421_pu

New Load.load_p1ulv1713_2 conn=wye bus1=p1ulv1713.2 kV=0.12 Vminpu=0.8 Vmaxpu=1.2 model=1 kW=6.139488924452324 kvar=1.0282575631325632 Phases=1 yearly=res_kw_421_pu

New Load.load_p1ulv1714_1 conn=wye bus1=p1ulv1714.1 kV=0.12 Vminpu=0.8 Vmaxpu=1.2 model=1 kW=2.6241521841182514 kvar=0.8429304779950015 Phases=1 yearly=res_kw_33_pu

New Load.load_p1ulv1714_2 conn=wye bus1=p1ulv1714.2 kV=0.12 Vminpu=0.8 Vmaxpu=1.2 model=1 kW=2.6241521841182514 kvar=0.8429304779950015 Phases=1 yearly=res_kw_33_pu

New Load.load_p1ulv1715_1 conn=wye bus1=p1ulv1715.1 kV=0.12 Vminpu=0.8 Vmaxpu=1.2 model=1 kW=5.436729579526792 kvar=1.2488470964899614 Phases=1 yearly=res_kw_454_pu

New Load.load_p1ulv1715_2 conn=wye bus1=p1ulv1715.2 kV=0.12 Vminpu=0.8 Vmaxpu=1.2 model=1 kW=5.436729579526792 kvar=1.2488470964899614 Phases=1 yearly=res_kw_454_pu

New Load.load_p1ulv1716_1 conn=wye bus1=p1ulv1716.1 kV=0.12 Vminpu=0.8 Vmaxpu=1.2 model=1 kW=3.8748715750127736 kvar=1.5614372175332516 Phases=1 yearly=res_kw_517_pu

New Load.load_p1ulv1716_2 conn=wye bus1=p1ulv1716.2 kV=0.12 Vminpu=0.8 Vmaxpu=1.2 model=1 kW=3.8748715750127736 kvar=1.5614372175332516 Phases=1 yearly=res_kw_517_pu

New Load.load_p1ulv1717_1 conn=wye bus1=p1ulv1717.1 kV=0.12 Vminpu=0.8 Vmaxpu=1.2 model=1 kW=4.359410160991208 kvar=0.7703346328307125 Phases=1 yearly=res_kw_470_pu

New Load.load_p1ulv1717_2 conn=wye bus1=p1ulv1717.2 kV=0.12 Vminpu=0.8 Vmaxpu=1.2 model=1 kW=4.359410160991208 kvar=0.7703346328307125 Phases=1 yearly=res_kw_470_pu

New Load.load_p1ulv1810_1 conn=wye bus1=p1ulv1810.1 kV=0.12 Vminpu=0.8 Vmaxpu=1.2 model=1 kW=4.4719654544990375 kvar=1.0992469987144322 Phases=1 yearly=res_kw_1157_pu

New Load.load_p1ulv1810_2 conn=wye bus1=p1ulv1810.2 kV=0.12 Vminpu=0.8 Vmaxpu=1.2 model=1 kW=4.4719654544990375 kvar=1.0992469987144322 Phases=1 yearly=res_kw_1157_pu

New Load.load_p1ulv1811_1 conn=wye bus1=p1ulv1811.1 kV=0.12 Vminpu=0.8 Vmaxpu=1.2 model=1 kW=7.820072877358693 kvar=1.759853089528969 Phases=1 yearly=res_kw_97_pu

New Load.load_p1ulv1811_2 conn=wye bus1=p1ulv1811.2 kV=0.12 Vminpu=0.8 Vmaxpu=1.2 model=1 kW=7.820072877358693 kvar=1.759853089528969 Phases=1 yearly=res_kw_97_pu

New Load.load_p1ulv1813_1 conn=wye bus1=p1ulv1813.1 kV=0.12 Vminpu=0.8 Vmaxpu=1.2 model=1 kW=6.294621884355657 kvar=1.2961288323966025 Phases=1 yearly=res_kw_689_pu

New Load.load_p1ulv1813_2 conn=wye bus1=p1ulv1813.2 kV=0.12 Vminpu=0.8 Vmaxpu=1.2 model=1 kW=6.294621884355657 kvar=1.2961288323966025 Phases=1 yearly=res_kw_689_pu

New Load.load_p1ulv1814_1 conn=wye bus1=p1ulv1814.1 kV=0.12 Vminpu=0.8 Vmaxpu=1.2 model=1 kW=2.40000228705824 kvar=1.0173787262529668 Phases=1 yearly=res_kw_1205_pu

New Load.load_p1ulv1814_2 conn=wye bus1=p1ulv1814.2 kV=0.12 Vminpu=0.8 Vmaxpu=1.2 model=1 kW=2.40000228705824 kvar=1.0173787262529668 Phases=1 yearly=res_kw_1205_pu

New Load.load_p1ulv1815_1 conn=wye bus1=p1ulv1815.1 kV=0.12 Vminpu=0.8 Vmaxpu=1.2 model=1 kW=7.259772519581312 kvar=1.3210086815250959 Phases=1 yearly=res_kw_128_pu

New Load.load_p1ulv1815_2 conn=wye bus1=p1ulv1815.2 kV=0.12 Vminpu=0.8 Vmaxpu=1.2 model=1 kW=7.259772519581312 kvar=1.3210086815250959 Phases=1 yearly=res_kw_128_pu

New Load.load_p1ulv1816_1 conn=wye bus1=p1ulv1816.1 kV=0.12 Vminpu=0.8 Vmaxpu=1.2 model=1 kW=6.364846522849057 kvar=1.3017627460069672 Phases=1 yearly=res_kw_947_pu

New Load.load_p1ulv1816_2 conn=wye bus1=p1ulv1816.2 kV=0.12 Vminpu=0.8 Vmaxpu=1.2 model=1 kW=6.364846522849057 kvar=1.3017627460069672 Phases=1 yearly=res_kw_947_pu

New Load.load_p1ulv1817_1 conn=wye bus1=p1ulv1817.1 kV=0.12 Vminpu=0.8 Vmaxpu=1.2 model=1 kW=11.506702661284509 kvar=3.22329926547824 Phases=1 yearly=res_kw_231_pu

New Load.load_p1ulv1817_2 conn=wye bus1=p1ulv1817.2 kV=0.12 Vminpu=0.8 Vmaxpu=1.2 model=1 kW=11.506702661284509 kvar=3.22329926547824 Phases=1 yearly=res_kw_231_pu

New Load.load_p1ulv1818_1 conn=wye bus1=p1ulv1818.1 kV=0.12 Vminpu=0.8 Vmaxpu=1.2 model=1 kW=4.792624300749482 kvar=1.1139407265067676 Phases=1 yearly=res_kw_898_pu

New Load.load_p1ulv1818_2 conn=wye bus1=p1ulv1818.2 kV=0.12 Vminpu=0.8 Vmaxpu=1.2 model=1 kW=4.792624300749482 kvar=1.1139407265067676 Phases=1 yearly=res_kw_898_pu

New Load.load_p1ulv1819_1 conn=wye bus1=p1ulv1819.1 kV=0.12 Vminpu=0.8 Vmaxpu=1.2 model=1 kW=2.9898249364160714 kvar=0.2983164502279761 Phases=1 yearly=res_kw_1070_pu

New Load.load_p1ulv1819_2 conn=wye bus1=p1ulv1819.2 kV=0.12 Vminpu=0.8 Vmaxpu=1.2 model=1 kW=2.9898249364160714 kvar=0.2983164502279761 Phases=1 yearly=res_kw_1070_pu

New Load.load_p1ulv1820_1 conn=wye bus1=p1ulv1820.1 kV=0.12 Vminpu=0.8 Vmaxpu=1.2 model=1 kW=11.506702661284509 kvar=3.22329926547824 Phases=1 yearly=res_kw_231_pu

New Load.load_p1ulv1820_2 conn=wye bus1=p1ulv1820.2 kV=0.12 Vminpu=0.8 Vmaxpu=1.2 model=1 kW=11.506702661284509 kvar=3.22329926547824 Phases=1 yearly=res_kw_231_pu

New Load.load_p1ulv1821_1 conn=wye bus1=p1ulv1821.1 kV=0.12 Vminpu=0.8 Vmaxpu=1.2 model=1 kW=7.935406333880378 kvar=2.9734713630513365 Phases=1 yearly=res_kw_272_pu

New Load.load_p1ulv1821_2 conn=wye bus1=p1ulv1821.2 kV=0.12 Vminpu=0.8 Vmaxpu=1.2 model=1 kW=7.935406333880378 kvar=2.9734713630513365 Phases=1 yearly=res_kw_272_pu

New Load.load_p1ulv1822_1 conn=wye bus1=p1ulv1822.1 kV=0.12 Vminpu=0.8 Vmaxpu=1.2 model=1 kW=11.472725693172217 kvar=0.6341510183543525 Phases=1 yearly=com_kw_14330_pu

New Load.load_p1ulv1822_2 conn=wye bus1=p1ulv1822.2 kV=0.12 Vminpu=0.8 Vmaxpu=1.2 model=1 kW=11.472725693172217 kvar=0.6341510183543525 Phases=1 yearly=com_kw_14330_pu

New Load.load_p1ulv1823 conn=wye bus1=p1ulv1823.1.2.3 kV=0.48 Vminpu=0.8 Vmaxpu=1.2 model=1 kW=32.8611348291906 kvar=9.197264659586232 Phases=3 yearly=com_kw_12775_pu

New Load.load_p1ulv1824_1 conn=wye bus1=p1ulv1824.1 kV=0.12 Vminpu=0.8 Vmaxpu=1.2 model=1 kW=6.847378896370207 kvar=0.2857422414791666 Phases=1 yearly=com_kw_14382_pu
