New Loadshape.GSO_36.1090_-79.9153_25_90 npts= 35040 interval=0.25 mult = (file=../../../../../profiles/GSO_36.1090_-79.9153_25_90.csv)

New Loadshape.GSO_36.1090_-79.9153_15_180 npts= 35040 interval=0.25 mult = (file=../../../../../profiles/GSO_36.1090_-79.9153_15_180.csv)

New Loadshape.GSO_36.1090_-79.9153_35_225 npts= 35040 interval=0.25 mult = (file=../../../../../profiles/GSO_36.1090_-79.9153_35_225.csv)

New Loadshape.GSO_36.1090_-79.9153_35_135 npts= 35040 interval=0.25 mult = (file=../../../../../profiles/GSO_36.1090_-79.9153_35_135.csv)

New Loadshape.GSO_36.1090_-79.9153_15_270 npts= 35040 interval=0.25 mult = (file=../../../../../profiles/GSO_36.1090_-79.9153_15_270.csv)

New Loadshape.GSO_36.1090_-79.9153_25_135 npts= 35040 interval=0.25 mult = (file=../../../../../profiles/GSO_36.1090_-79.9153_25_135.csv)

New Loadshape.GSO_36.1090_-79.9153_25_180 npts= 35040 interval=0.25 mult = (file=../../../../../profiles/GSO_36.1090_-79.9153_25_180.csv)

New Loadshape.GSO_36.1090_-79.9153_25_225 npts= 35040 interval=0.25 mult = (file=../../../../../profiles/GSO_36.1090_-79.9153_25_225.csv)

New Loadshape.GSO_36.1090_-79.9153_35_90 npts= 35040 interval=0.25 mult = (file=../../../../../profiles/GSO_36.1090_-79.9153_35_90.csv)

New Loadshape.GSO_36.1090_-79.9153_15_90 npts= 35040 interval=0.25 mult = (file=../../../../../profiles/GSO_36.1090_-79.9153_15_90.csv)

New Loadshape.GSO_36.1090_-79.9153_15_135 npts= 35040 interval=0.25 mult = (file=../../../../../profiles/GSO_36.1090_-79.9153_15_135.csv)

New Loadshape.GSO_36.1090_-79.9153_35_270 npts= 35040 interval=0.25 mult = (file=../../../../../profiles/GSO_36.1090_-79.9153_35_270.csv)

New Loadshape.GSO_36.1090_-79.9153_15_225 npts= 35040 interval=0.25 mult = (file=../../../../../profiles/GSO_36.1090_-79.9153_15_225.csv)

New Loadshape.GSO_36.1090_-79.9153_45_225 npts= 35040 interval=0.25 mult = (file=../../../../../profiles/GSO_36.1090_-79.9153_45_225.csv)

New Loadshape.GSO_36.1090_-79.9153_25_270 npts= 35040 interval=0.25 mult = (file=../../../../../profiles/GSO_36.1090_-79.9153_25_270.csv)

New Loadshape.GSO_36.1090_-79.9153_35_180 npts= 35040 interval=0.25 mult = (file=../../../../../profiles/GSO_36.1090_-79.9153_35_180.csv)

New Loadshape.GSO_36.1090_-79.9153_45_135 npts= 35040 interval=0.25 mult = (file=../../../../../profiles/GSO_36.1090_-79.9153_45_135.csv)

New Loadshape.GSO_36.1090_-79.9153_45_180 npts= 35040 interval=0.25 mult = (file=../../../../../profiles/GSO_36.1090_-79.9153_45_180.csv)

New Loadshape.GSO_36.1090_-79.9153_45_270 npts= 35040 interval=0.25 mult = (file=../../../../../profiles/GSO_36.1090_-79.9153_45_270.csv)

New Loadshape.GSO_36.0721_-79.9153_25_225 npts= 35040 interval=0.25 mult = (file=../../../../../profiles/GSO_36.0721_-79.9153_25_225.csv)

New Loadshape.GSO_36.0721_-79.9153_25_270 npts= 35040 interval=0.25 mult = (file=../../../../../profiles/GSO_36.0721_-79.9153_25_270.csv)

New Loadshape.GSO_36.1090_-79.9153_45_90 npts= 35040 interval=0.25 mult = (file=../../../../../profiles/GSO_36.1090_-79.9153_45_90.csv)

New Loadshape.GSO_36.1090_-79.9153_55_180 npts= 35040 interval=0.25 mult = (file=../../../../../profiles/GSO_36.1090_-79.9153_55_180.csv)

New Loadshape.GSO_36.1090_-79.9153_55_225 npts= 35040 interval=0.25 mult = (file=../../../../../profiles/GSO_36.1090_-79.9153_55_225.csv)

New Loadshape.GSO_36.0721_-79.9153_35_90 npts= 35040 interval=0.25 mult = (file=../../../../../profiles/GSO_36.0721_-79.9153_35_90.csv)

New Loadshape.GSO_36.1090_-79.9153_55_90 npts= 35040 interval=0.25 mult = (file=../../../../../profiles/GSO_36.1090_-79.9153_55_90.csv)

New Loadshape.GSO_36.1090_-79.9153_55_135 npts= 35040 interval=0.25 mult = (file=../../../../../profiles/GSO_36.1090_-79.9153_55_135.csv)

New Loadshape.res_kw_4_pu npts= 35040 interval=0.25 mult = (file=../../../../../profiles/res_kw_4_pu.csv) qmult = (file=../../../../../profiles/res_kvar_4_pu.csv)

New Loadshape.res_kw_517_pu npts= 35040 interval=0.25 mult = (file=../../../../../profiles/res_kw_517_pu.csv) qmult = (file=../../../../../profiles/res_kvar_517_pu.csv)

New Loadshape.res_kw_1205_pu npts= 35040 interval=0.25 mult = (file=../../../../../profiles/res_kw_1205_pu.csv) qmult = (file=../../../../../profiles/res_kvar_1205_pu.csv)

New Loadshape.res_kw_411_pu npts= 35040 interval=0.25 mult = (file=../../../../../profiles/res_kw_411_pu.csv) qmult = (file=../../../../../profiles/res_kvar_411_pu.csv)

New Loadshape.res_kw_1258_pu npts= 35040 interval=0.25 mult = (file=../../../../../profiles/res_kw_1258_pu.csv) qmult = (file=../../../../../profiles/res_kvar_1258_pu.csv)

New Loadshape.res_kw_1138_pu npts= 35040 interval=0.25 mult = (file=../../../../../profiles/res_kw_1138_pu.csv) qmult = (file=../../../../../profiles/res_kvar_1138_pu.csv)

New Loadshape.res_kw_207_pu npts= 35040 interval=0.25 mult = (file=../../../../../profiles/res_kw_207_pu.csv) qmult = (file=../../../../../profiles/res_kvar_207_pu.csv)

New Loadshape.res_kw_98_pu npts= 35040 interval=0.25 mult = (file=../../../../../profiles/res_kw_98_pu.csv) qmult = (file=../../../../../profiles/res_kvar_98_pu.csv)

New Loadshape.res_kw_250_pu npts= 35040 interval=0.25 mult = (file=../../../../../profiles/res_kw_250_pu.csv) qmult = (file=../../../../../profiles/res_kvar_250_pu.csv)

New Loadshape.res_kw_33_pu npts= 35040 interval=0.25 mult = (file=../../../../../profiles/res_kw_33_pu.csv) qmult = (file=../../../../../profiles/res_kvar_33_pu.csv)

New Loadshape.res_kw_421_pu npts= 35040 interval=0.25 mult = (file=../../../../../profiles/res_kw_421_pu.csv) qmult = (file=../../../../../profiles/res_kvar_421_pu.csv)

New Loadshape.res_kw_825_pu npts= 35040 interval=0.25 mult = (file=../../../../../profiles/res_kw_825_pu.csv) qmult = (file=../../../../../profiles/res_kvar_825_pu.csv)

New Loadshape.res_kw_101_pu npts= 35040 interval=0.25 mult = (file=../../../../../profiles/res_kw_101_pu.csv) qmult = (file=../../../../../profiles/res_kvar_101_pu.csv)

New Loadshape.res_kw_128_pu npts= 35040 interval=0.25 mult = (file=../../../../../profiles/res_kw_128_pu.csv) qmult = (file=../../../../../profiles/res_kvar_128_pu.csv)

New Loadshape.res_kw_470_pu npts= 35040 interval=0.25 mult = (file=../../../../../profiles/res_kw_470_pu.csv) qmult = (file=../../../../../profiles/res_kvar_470_pu.csv)

New Loadshape.res_kw_561_pu npts= 35040 interval=0.25 mult = (file=../../../../../profiles/res_kw_561_pu.csv) qmult = (file=../../../../../profiles/res_kvar_561_pu.csv)

New Loadshape.res_kw_169_pu npts= 35040 interval=0.25 mult = (file=../../../../../profiles/res_kw_169_pu.csv) qmult = (file=../../../../../profiles/res_kvar_169_pu.csv)

New Loadshape.res_kw_861_pu npts= 35040 interval=0.25 mult = (file=../../../../../profiles/res_kw_861_pu.csv) qmult = (file=../../../../../profiles/res_kvar_861_pu.csv)

New Loadshape.res_kw_1013_pu npts= 35040 interval=0.25 mult = (file=../../../../../profiles/res_kw_1013_pu.csv) qmult = (file=../../../../../profiles/res_kvar_1013_pu.csv)

New Loadshape.res_kw_1228_pu npts= 35040 interval=0.25 mult = (file=../../../../../profiles/res_kw_1228_pu.csv) qmult = (file=../../../../../profiles/res_kvar_1228_pu.csv)

New Loadshape.res_kw_407_pu npts= 35040 interval=0.25 mult = (file=../../../../../profiles/res_kw_407_pu.csv) qmult = (file=../../../../../profiles/res_kvar_407_pu.csv)

New Loadshape.res_kw_182_pu npts= 35040 interval=0.25 mult = (file=../../../../../profiles/res_kw_182_pu.csv) qmult = (file=../../../../../profiles/res_kvar_182_pu.csv)

New Loadshape.res_kw_1273_pu npts= 35040 interval=0.25 mult = (file=../../../../../profiles/res_kw_1273_pu.csv) qmult = (file=../../../../../profiles/res_kvar_1273_pu.csv)

New Loadshape.res_kw_24_pu npts= 35040 interval=0.25 mult = (file=../../../../../profiles/res_kw_24_pu.csv) qmult = (file=../../../../../profiles/res_kvar_24_pu.csv)

New Loadshape.res_kw_842_pu npts= 35040 interval=0.25 mult = (file=../../../../../profiles/res_kw_842_pu.csv) qmult = (file=../../../../../profiles/res_kvar_842_pu.csv)

New Loadshape.res_kw_670_pu npts= 35040 interval=0.25 mult = (file=../../../../../profiles/res_kw_670_pu.csv) qmult = (file=../../../../../profiles/res_kvar_670_pu.csv)

New Loadshape.res_kw_454_pu npts= 35040 interval=0.25 mult = (file=../../../../../profiles/res_kw_454_pu.csv) qmult = (file=../../../../../profiles/res_kvar_454_pu.csv)

New Loadshape.res_kw_852_pu npts= 35040 interval=0.25 mult = (file=../../../../../profiles/res_kw_852_pu.csv) qmult = (file=../../../../../profiles/res_kvar_852_pu.csv)

New Loadshape.res_kw_710_pu npts= 35040 interval=0.25 mult = (file=../../../../../profiles/res_kw_710_pu.csv) qmult = (file=../../../../../profiles/res_kvar_710_pu.csv)

New Loadshape.res_kw_1190_pu npts= 35040 interval=0.25 mult = (file=../../../../../profiles/res_kw_1190_pu.csv) qmult = (file=../../../../../profiles/res_kvar_1190_pu.csv)

New Loadshape.res_kw_97_pu npts= 35040 interval=0.25 mult = (file=../../../../../profiles/res_kw_97_pu.csv) qmult = (file=../../../../../profiles/res_kvar_97_pu.csv)

New Loadshape.res_kw_1080_pu npts= 35040 interval=0.25 mult = (file=../../../../../profiles/res_kw_1080_pu.csv) qmult = (file=../../../../../profiles/res_kvar_1080_pu.csv)

New Loadshape.res_kw_314_pu npts= 35040 interval=0.25 mult = (file=../../../../../profiles/res_kw_314_pu.csv) qmult = (file=../../../../../profiles/res_kvar_314_pu.csv)

New Loadshape.res_kw_170_pu npts= 35040 interval=0.25 mult = (file=../../../../../profiles/res_kw_170_pu.csv) qmult = (file=../../../../../profiles/res_kvar_170_pu.csv)

New Loadshape.res_kw_523_pu npts= 35040 interval=0.25 mult = (file=../../../../../profiles/res_kw_523_pu.csv) qmult = (file=../../../../../profiles/res_kvar_523_pu.csv)

New Loadshape.res_kw_267_pu npts= 35040 interval=0.25 mult = (file=../../../../../profiles/res_kw_267_pu.csv) qmult = (file=../../../../../profiles/res_kvar_267_pu.csv)

New Loadshape.res_kw_616_pu npts= 35040 interval=0.25 mult = (file=../../../../../profiles/res_kw_616_pu.csv) qmult = (file=../../../../../profiles/res_kvar_616_pu.csv)

New Loadshape.res_kw_1157_pu npts= 35040 interval=0.25 mult = (file=../../../../../profiles/res_kw_1157_pu.csv) qmult = (file=../../../../../profiles/res_kvar_1157_pu.csv)

New Loadshape.res_kw_689_pu npts= 35040 interval=0.25 mult = (file=../../../../../profiles/res_kw_689_pu.csv) qmult = (file=../../../../../profiles/res_kvar_689_pu.csv)

New Loadshape.res_kw_947_pu npts= 35040 interval=0.25 mult = (file=../../../../../profiles/res_kw_947_pu.csv) qmult = (file=../../../../../profiles/res_kvar_947_pu.csv)

New Loadshape.res_kw_231_pu npts= 35040 interval=0.25 mult = (file=../../../../../profiles/res_kw_231_pu.csv) qmult = (file=../../../../../profiles/res_kvar_231_pu.csv)

New Loadshape.res_kw_898_pu npts= 35040 interval=0.25 mult = (file=../../../../../profiles/res_kw_898_pu.csv) qmult = (file=../../../../../profiles/res_kvar_898_pu.csv)

New Loadshape.res_kw_1070_pu npts= 35040 interval=0.25 mult = (file=../../../../../profiles/res_kw_1070_pu.csv) qmult = (file=../../../../../profiles/res_kvar_1070_pu.csv)

New Loadshape.res_kw_272_pu npts= 35040 interval=0.25 mult = (file=../../../../../profiles/res_kw_272_pu.csv) qmult = (file=../../../../../profiles/res_kvar_272_pu.csv)

New Loadshape.res_kw_280_pu npts= 35040 interval=0.25 mult = (file=../../../../../profiles/res_kw_280_pu.csv) qmult = (file=../../../../../profiles/res_kvar_280_pu.csv)

New Loadshape.res_kw_409_pu npts= 35040 interval=0.25 mult = (file=../../../../../profiles/res_kw_409_pu.csv) qmult = (file=../../../../../profiles/res_kvar_409_pu.csv)

New Loadshape.res_kw_863_pu npts= 35040 interval=0.25 mult = (file=../../../../../profiles/res_kw_863_pu.csv) qmult = (file=../../../../../profiles/res_kvar_863_pu.csv)

New Loadshape.res_kw_504_pu npts= 35040 interval=0.25 mult = (file=../../../../../profiles/res_kw_504_pu.csv) qmult = (file=../../../../../profiles/res_kvar_504_pu.csv)

New Loadshape.res_kw_278_pu npts= 35040 interval=0.25 mult = (file=../../../../../profiles/res_kw_278_pu.csv) qmult = (file=../../../../../profiles/res_kvar_278_pu.csv)

New Loadshape.res_kw_75_pu npts= 35040 interval=0.25 mult = (file=../../../../../profiles/res_kw_75_pu.csv) qmult = (file=../../../../../profiles/res_kvar_75_pu.csv)

New Loadshape.res_kw_40_pu npts= 35040 interval=0.25 mult = (file=../../../../../profiles/res_kw_40_pu.csv) qmult = (file=../../../../../profiles/res_kvar_40_pu.csv)

New Loadshape.res_kw_46_pu npts= 35040 interval=0.25 mult = (file=../../../../../profiles/res_kw_46_pu.csv) qmult = (file=../../../../../profiles/res_kvar_46_pu.csv)

New Loadshape.res_kw_263_pu npts= 35040 interval=0.25 mult = (file=../../../../../profiles/res_kw_263_pu.csv) qmult = (file=../../../../../profiles/res_kvar_263_pu.csv)

New Loadshape.res_kw_1083_pu npts= 35040 interval=0.25 mult = (file=../../../../../profiles/res_kw_1083_pu.csv) qmult = (file=../../../../../profiles/res_kvar_1083_pu.csv)

New Loadshape.res_kw_1248_pu npts= 35040 interval=0.25 mult = (file=../../../../../profiles/res_kw_1248_pu.csv) qmult = (file=../../../../../profiles/res_kvar_1248_pu.csv)

New Loadshape.res_kw_197_pu npts= 35040 interval=0.25 mult = (file=../../../../../profiles/res_kw_197_pu.csv) qmult = (file=../../../../../profiles/res_kvar_197_pu.csv)

New Loadshape.res_kw_1160_pu npts= 35040 interval=0.25 mult = (file=../../../../../profiles/res_kw_1160_pu.csv) qmult = (file=../../../../../profiles/res_kvar_1160_pu.csv)

New Loadshape.res_kw_319_pu npts= 35040 interval=0.25 mult = (file=../../../../../profiles/res_kw_319_pu.csv) qmult = (file=../../../../../profiles/res_kvar_319_pu.csv)

New Loadshape.res_kw_691_pu npts= 35040 interval=0.25 mult = (file=../../../../../profiles/res_kw_691_pu.csv) qmult = (file=../../../../../profiles/res_kvar_691_pu.csv)

New Loadshape.res_kw_1186_pu npts= 35040 interval=0.25 mult = (file=../../../../../profiles/res_kw_1186_pu.csv) qmult = (file=../../../../../profiles/res_kvar_1186_pu.csv)

New Loadshape.res_kw_626_pu npts= 35040 interval=0.25 mult = (file=../../../../../profiles/res_kw_626_pu.csv) qmult = (file=../../../../../profiles/res_kvar_626_pu.csv)

New Loadshape.res_kw_198_pu npts= 35040 interval=0.25 mult = (file=../../../../../profiles/res_kw_198_pu.csv) qmult = (file=../../../../../profiles/res_kvar_198_pu.csv)

New Loadshape.res_kw_362_pu npts= 35040 interval=0.25 mult = (file=../../../../../profiles/res_kw_362_pu.csv) qmult = (file=../../../../../profiles/res_kvar_362_pu.csv)

New Loadshape.res_kw_452_pu npts= 35040 interval=0.25 mult = (file=../../../../../profiles/res_kw_452_pu.csv) qmult = (file=../../../../../profiles/res_kvar_452_pu.csv)

New Loadshape.res_kw_627_pu npts= 35040 interval=0.25 mult = (file=../../../../../profiles/res_kw_627_pu.csv) qmult = (file=../../../../../profiles/res_kvar_627_pu.csv)

New Loadshape.res_kw_621_pu npts= 35040 interval=0.25 mult = (file=../../../../../profiles/res_kw_621_pu.csv) qmult = (file=../../../../../profiles/res_kvar_621_pu.csv)

New Loadshape.res_kw_675_pu npts= 35040 interval=0.25 mult = (file=../../../../../profiles/res_kw_675_pu.csv) qmult = (file=../../../../../profiles/res_kvar_675_pu.csv)

New Loadshape.res_kw_93_pu npts= 35040 interval=0.25 mult = (file=../../../../../profiles/res_kw_93_pu.csv) qmult = (file=../../../../../profiles/res_kvar_93_pu.csv)

New Loadshape.res_kw_141_pu npts= 35040 interval=0.25 mult = (file=../../../../../profiles/res_kw_141_pu.csv) qmult = (file=../../../../../profiles/res_kvar_141_pu.csv)

New Loadshape.res_kw_354_pu npts= 35040 interval=0.25 mult = (file=../../../../../profiles/res_kw_354_pu.csv) qmult = (file=../../../../../profiles/res_kvar_354_pu.csv)

New Loadshape.res_kw_1149_pu npts= 35040 interval=0.25 mult = (file=../../../../../profiles/res_kw_1149_pu.csv) qmult = (file=../../../../../profiles/res_kvar_1149_pu.csv)

New Loadshape.res_kw_780_pu npts= 35040 interval=0.25 mult = (file=../../../../../profiles/res_kw_780_pu.csv) qmult = (file=../../../../../profiles/res_kvar_780_pu.csv)

New Loadshape.res_kw_879_pu npts= 35040 interval=0.25 mult = (file=../../../../../profiles/res_kw_879_pu.csv) qmult = (file=../../../../../profiles/res_kvar_879_pu.csv)

New Loadshape.res_kw_1105_pu npts= 35040 interval=0.25 mult = (file=../../../../../profiles/res_kw_1105_pu.csv) qmult = (file=../../../../../profiles/res_kvar_1105_pu.csv)

New Loadshape.res_kw_1037_pu npts= 35040 interval=0.25 mult = (file=../../../../../profiles/res_kw_1037_pu.csv) qmult = (file=../../../../../profiles/res_kvar_1037_pu.csv)

New Loadshape.res_kw_933_pu npts= 35040 interval=0.25 mult = (file=../../../../../profiles/res_kw_933_pu.csv) qmult = (file=../../../../../profiles/res_kvar_933_pu.csv)

New Loadshape.res_kw_968_pu npts= 35040 interval=0.25 mult = (file=../../../../../profiles/res_kw_968_pu.csv) qmult = (file=../../../../../profiles/res_kvar_968_pu.csv)

New Loadshape.res_kw_457_pu npts= 35040 interval=0.25 mult = (file=../../../../../profiles/res_kw_457_pu.csv) qmult = (file=../../../../../profiles/res_kvar_457_pu.csv)

New Loadshape.res_kw_211_pu npts= 35040 interval=0.25 mult = (file=../../../../../profiles/res_kw_211_pu.csv) qmult = (file=../../../../../profiles/res_kvar_211_pu.csv)

New Loadshape.res_kw_1153_pu npts= 35040 interval=0.25 mult = (file=../../../../../profiles/res_kw_1153_pu.csv) qmult = (file=../../../../../profiles/res_kvar_1153_pu.csv)

New Loadshape.res_kw_512_pu npts= 35040 interval=0.25 mult = (file=../../../../../profiles/res_kw_512_pu.csv) qmult = (file=../../../../../profiles/res_kvar_512_pu.csv)

New Loadshape.res_kw_1283_pu npts= 35040 interval=0.25 mult = (file=../../../../../profiles/res_kw_1283_pu.csv) qmult = (file=../../../../../profiles/res_kvar_1283_pu.csv)

New Loadshape.res_kw_560_pu npts= 35040 interval=0.25 mult = (file=../../../../../profiles/res_kw_560_pu.csv) qmult = (file=../../../../../profiles/res_kvar_560_pu.csv)

New Loadshape.res_kw_1267_pu npts= 35040 interval=0.25 mult = (file=../../../../../profiles/res_kw_1267_pu.csv) qmult = (file=../../../../../profiles/res_kvar_1267_pu.csv)

New Loadshape.res_kw_822_pu npts= 35040 interval=0.25 mult = (file=../../../../../profiles/res_kw_822_pu.csv) qmult = (file=../../../../../profiles/res_kvar_822_pu.csv)

New Loadshape.res_kw_624_pu npts= 35040 interval=0.25 mult = (file=../../../../../profiles/res_kw_624_pu.csv) qmult = (file=../../../../../profiles/res_kvar_624_pu.csv)

New Loadshape.res_kw_251_pu npts= 35040 interval=0.25 mult = (file=../../../../../profiles/res_kw_251_pu.csv) qmult = (file=../../../../../profiles/res_kvar_251_pu.csv)

New Loadshape.res_kw_317_pu npts= 35040 interval=0.25 mult = (file=../../../../../profiles/res_kw_317_pu.csv) qmult = (file=../../../../../profiles/res_kvar_317_pu.csv)

New Loadshape.res_kw_1115_pu npts= 35040 interval=0.25 mult = (file=../../../../../profiles/res_kw_1115_pu.csv) qmult = (file=../../../../../profiles/res_kvar_1115_pu.csv)

New Loadshape.res_kw_20_pu npts= 35040 interval=0.25 mult = (file=../../../../../profiles/res_kw_20_pu.csv) qmult = (file=../../../../../profiles/res_kvar_20_pu.csv)

New Loadshape.res_kw_203_pu npts= 35040 interval=0.25 mult = (file=../../../../../profiles/res_kw_203_pu.csv) qmult = (file=../../../../../profiles/res_kvar_203_pu.csv)

New Loadshape.res_kw_1094_pu npts= 35040 interval=0.25 mult = (file=../../../../../profiles/res_kw_1094_pu.csv) qmult = (file=../../../../../profiles/res_kvar_1094_pu.csv)

New Loadshape.res_kw_911_pu npts= 35040 interval=0.25 mult = (file=../../../../../profiles/res_kw_911_pu.csv) qmult = (file=../../../../../profiles/res_kvar_911_pu.csv)

New Loadshape.res_kw_7_pu npts= 35040 interval=0.25 mult = (file=../../../../../profiles/res_kw_7_pu.csv) qmult = (file=../../../../../profiles/res_kvar_7_pu.csv)

New Loadshape.res_kw_199_pu npts= 35040 interval=0.25 mult = (file=../../../../../profiles/res_kw_199_pu.csv) qmult = (file=../../../../../profiles/res_kvar_199_pu.csv)

New Loadshape.res_kw_695_pu npts= 35040 interval=0.25 mult = (file=../../../../../profiles/res_kw_695_pu.csv) qmult = (file=../../../../../profiles/res_kvar_695_pu.csv)

New Loadshape.res_kw_752_pu npts= 35040 interval=0.25 mult = (file=../../../../../profiles/res_kw_752_pu.csv) qmult = (file=../../../../../profiles/res_kvar_752_pu.csv)

New Loadshape.res_kw_450_pu npts= 35040 interval=0.25 mult = (file=../../../../../profiles/res_kw_450_pu.csv) qmult = (file=../../../../../profiles/res_kvar_450_pu.csv)

New Loadshape.res_kw_1023_pu npts= 35040 interval=0.25 mult = (file=../../../../../profiles/res_kw_1023_pu.csv) qmult = (file=../../../../../profiles/res_kvar_1023_pu.csv)

New Loadshape.res_kw_206_pu npts= 35040 interval=0.25 mult = (file=../../../../../profiles/res_kw_206_pu.csv) qmult = (file=../../../../../profiles/res_kvar_206_pu.csv)

New Loadshape.res_kw_932_pu npts= 35040 interval=0.25 mult = (file=../../../../../profiles/res_kw_932_pu.csv) qmult = (file=../../../../../profiles/res_kvar_932_pu.csv)

New Loadshape.res_kw_2_pu npts= 35040 interval=0.25 mult = (file=../../../../../profiles/res_kw_2_pu.csv) qmult = (file=../../../../../profiles/res_kvar_2_pu.csv)

New Loadshape.res_kw_664_pu npts= 35040 interval=0.25 mult = (file=../../../../../profiles/res_kw_664_pu.csv) qmult = (file=../../../../../profiles/res_kvar_664_pu.csv)

New Loadshape.res_kw_1041_pu npts= 35040 interval=0.25 mult = (file=../../../../../profiles/res_kw_1041_pu.csv) qmult = (file=../../../../../profiles/res_kvar_1041_pu.csv)

New Loadshape.res_kw_532_pu npts= 35040 interval=0.25 mult = (file=../../../../../profiles/res_kw_532_pu.csv) qmult = (file=../../../../../profiles/res_kvar_532_pu.csv)

New Loadshape.res_kw_549_pu npts= 35040 interval=0.25 mult = (file=../../../../../profiles/res_kw_549_pu.csv) qmult = (file=../../../../../profiles/res_kvar_549_pu.csv)

New Loadshape.res_kw_924_pu npts= 35040 interval=0.25 mult = (file=../../../../../profiles/res_kw_924_pu.csv) qmult = (file=../../../../../profiles/res_kvar_924_pu.csv)

New Loadshape.res_kw_823_pu npts= 35040 interval=0.25 mult = (file=../../../../../profiles/res_kw_823_pu.csv) qmult = (file=../../../../../profiles/res_kvar_823_pu.csv)

New Loadshape.res_kw_245_pu npts= 35040 interval=0.25 mult = (file=../../../../../profiles/res_kw_245_pu.csv) qmult = (file=../../../../../profiles/res_kvar_245_pu.csv)

New Loadshape.res_kw_1256_pu npts= 35040 interval=0.25 mult = (file=../../../../../profiles/res_kw_1256_pu.csv) qmult = (file=../../../../../profiles/res_kvar_1256_pu.csv)

New Loadshape.res_kw_162_pu npts= 35040 interval=0.25 mult = (file=../../../../../profiles/res_kw_162_pu.csv) qmult = (file=../../../../../profiles/res_kvar_162_pu.csv)

New Loadshape.res_kw_548_pu npts= 35040 interval=0.25 mult = (file=../../../../../profiles/res_kw_548_pu.csv) qmult = (file=../../../../../profiles/res_kvar_548_pu.csv)

New Loadshape.res_kw_401_pu npts= 35040 interval=0.25 mult = (file=../../../../../profiles/res_kw_401_pu.csv) qmult = (file=../../../../../profiles/res_kvar_401_pu.csv)

New Loadshape.res_kw_534_pu npts= 35040 interval=0.25 mult = (file=../../../../../profiles/res_kw_534_pu.csv) qmult = (file=../../../../../profiles/res_kvar_534_pu.csv)

New Loadshape.res_kw_497_pu npts= 35040 interval=0.25 mult = (file=../../../../../profiles/res_kw_497_pu.csv) qmult = (file=../../../../../profiles/res_kvar_497_pu.csv)

New Loadshape.res_kw_39_pu npts= 35040 interval=0.25 mult = (file=../../../../../profiles/res_kw_39_pu.csv) qmult = (file=../../../../../profiles/res_kvar_39_pu.csv)

New Loadshape.res_kw_283_pu npts= 35040 interval=0.25 mult = (file=../../../../../profiles/res_kw_283_pu.csv) qmult = (file=../../../../../profiles/res_kvar_283_pu.csv)

New Loadshape.res_kw_707_pu npts= 35040 interval=0.25 mult = (file=../../../../../profiles/res_kw_707_pu.csv) qmult = (file=../../../../../profiles/res_kvar_707_pu.csv)

New Loadshape.res_kw_30_pu npts= 35040 interval=0.25 mult = (file=../../../../../profiles/res_kw_30_pu.csv) qmult = (file=../../../../../profiles/res_kvar_30_pu.csv)

New Loadshape.res_kw_540_pu npts= 35040 interval=0.25 mult = (file=../../../../../profiles/res_kw_540_pu.csv) qmult = (file=../../../../../profiles/res_kvar_540_pu.csv)

New Loadshape.res_kw_1036_pu npts= 35040 interval=0.25 mult = (file=../../../../../profiles/res_kw_1036_pu.csv) qmult = (file=../../../../../profiles/res_kvar_1036_pu.csv)

New Loadshape.res_kw_1104_pu npts= 35040 interval=0.25 mult = (file=../../../../../profiles/res_kw_1104_pu.csv) qmult = (file=../../../../../profiles/res_kvar_1104_pu.csv)

New Loadshape.res_kw_318_pu npts= 35040 interval=0.25 mult = (file=../../../../../profiles/res_kw_318_pu.csv) qmult = (file=../../../../../profiles/res_kvar_318_pu.csv)

New Loadshape.res_kw_552_pu npts= 35040 interval=0.25 mult = (file=../../../../../profiles/res_kw_552_pu.csv) qmult = (file=../../../../../profiles/res_kvar_552_pu.csv)

New Loadshape.res_kw_1223_pu npts= 35040 interval=0.25 mult = (file=../../../../../profiles/res_kw_1223_pu.csv) qmult = (file=../../../../../profiles/res_kvar_1223_pu.csv)

New Loadshape.res_kw_522_pu npts= 35040 interval=0.25 mult = (file=../../../../../profiles/res_kw_522_pu.csv) qmult = (file=../../../../../profiles/res_kvar_522_pu.csv)

New Loadshape.res_kw_21_pu npts= 35040 interval=0.25 mult = (file=../../../../../profiles/res_kw_21_pu.csv) qmult = (file=../../../../../profiles/res_kvar_21_pu.csv)

New Loadshape.res_kw_455_pu npts= 35040 interval=0.25 mult = (file=../../../../../profiles/res_kw_455_pu.csv) qmult = (file=../../../../../profiles/res_kvar_455_pu.csv)

New Loadshape.res_kw_709_pu npts= 35040 interval=0.25 mult = (file=../../../../../profiles/res_kw_709_pu.csv) qmult = (file=../../../../../profiles/res_kvar_709_pu.csv)

New Loadshape.res_kw_216_pu npts= 35040 interval=0.25 mult = (file=../../../../../profiles/res_kw_216_pu.csv) qmult = (file=../../../../../profiles/res_kvar_216_pu.csv)

New Loadshape.res_kw_1177_pu npts= 35040 interval=0.25 mult = (file=../../../../../profiles/res_kw_1177_pu.csv) qmult = (file=../../../../../profiles/res_kvar_1177_pu.csv)

New Loadshape.res_kw_906_pu npts= 35040 interval=0.25 mult = (file=../../../../../profiles/res_kw_906_pu.csv) qmult = (file=../../../../../profiles/res_kvar_906_pu.csv)

New Loadshape.res_kw_461_pu npts= 35040 interval=0.25 mult = (file=../../../../../profiles/res_kw_461_pu.csv) qmult = (file=../../../../../profiles/res_kvar_461_pu.csv)

New Loadshape.res_kw_597_pu npts= 35040 interval=0.25 mult = (file=../../../../../profiles/res_kw_597_pu.csv) qmult = (file=../../../../../profiles/res_kvar_597_pu.csv)

New Loadshape.res_kw_1159_pu npts= 35040 interval=0.25 mult = (file=../../../../../profiles/res_kw_1159_pu.csv) qmult = (file=../../../../../profiles/res_kvar_1159_pu.csv)

New Loadshape.res_kw_462_pu npts= 35040 interval=0.25 mult = (file=../../../../../profiles/res_kw_462_pu.csv) qmult = (file=../../../../../profiles/res_kvar_462_pu.csv)

New Loadshape.res_kw_331_pu npts= 35040 interval=0.25 mult = (file=../../../../../profiles/res_kw_331_pu.csv) qmult = (file=../../../../../profiles/res_kvar_331_pu.csv)

New Loadshape.res_kw_938_pu npts= 35040 interval=0.25 mult = (file=../../../../../profiles/res_kw_938_pu.csv) qmult = (file=../../../../../profiles/res_kvar_938_pu.csv)

New Loadshape.res_kw_1220_pu npts= 35040 interval=0.25 mult = (file=../../../../../profiles/res_kw_1220_pu.csv) qmult = (file=../../../../../profiles/res_kvar_1220_pu.csv)

New Loadshape.res_kw_324_pu npts= 35040 interval=0.25 mult = (file=../../../../../profiles/res_kw_324_pu.csv) qmult = (file=../../../../../profiles/res_kvar_324_pu.csv)

New Loadshape.res_kw_505_pu npts= 35040 interval=0.25 mult = (file=../../../../../profiles/res_kw_505_pu.csv) qmult = (file=../../../../../profiles/res_kvar_505_pu.csv)

New Loadshape.res_kw_809_pu npts= 35040 interval=0.25 mult = (file=../../../../../profiles/res_kw_809_pu.csv) qmult = (file=../../../../../profiles/res_kvar_809_pu.csv)

New Loadshape.res_kw_599_pu npts= 35040 interval=0.25 mult = (file=../../../../../profiles/res_kw_599_pu.csv) qmult = (file=../../../../../profiles/res_kvar_599_pu.csv)

New Loadshape.res_kw_931_pu npts= 35040 interval=0.25 mult = (file=../../../../../profiles/res_kw_931_pu.csv) qmult = (file=../../../../../profiles/res_kvar_931_pu.csv)

New Loadshape.res_kw_828_pu npts= 35040 interval=0.25 mult = (file=../../../../../profiles/res_kw_828_pu.csv) qmult = (file=../../../../../profiles/res_kvar_828_pu.csv)

New Loadshape.res_kw_464_pu npts= 35040 interval=0.25 mult = (file=../../../../../profiles/res_kw_464_pu.csv) qmult = (file=../../../../../profiles/res_kvar_464_pu.csv)

New Loadshape.res_kw_1276_pu npts= 35040 interval=0.25 mult = (file=../../../../../profiles/res_kw_1276_pu.csv) qmult = (file=../../../../../profiles/res_kvar_1276_pu.csv)

New Loadshape.res_kw_988_pu npts= 35040 interval=0.25 mult = (file=../../../../../profiles/res_kw_988_pu.csv) qmult = (file=../../../../../profiles/res_kvar_988_pu.csv)

New Loadshape.res_kw_1054_pu npts= 35040 interval=0.25 mult = (file=../../../../../profiles/res_kw_1054_pu.csv) qmult = (file=../../../../../profiles/res_kvar_1054_pu.csv)

New Loadshape.res_kw_305_pu npts= 35040 interval=0.25 mult = (file=../../../../../profiles/res_kw_305_pu.csv) qmult = (file=../../../../../profiles/res_kvar_305_pu.csv)

New Loadshape.res_kw_1042_pu npts= 35040 interval=0.25 mult = (file=../../../../../profiles/res_kw_1042_pu.csv) qmult = (file=../../../../../profiles/res_kvar_1042_pu.csv)

New Loadshape.res_kw_736_pu npts= 35040 interval=0.25 mult = (file=../../../../../profiles/res_kw_736_pu.csv) qmult = (file=../../../../../profiles/res_kvar_736_pu.csv)

New Loadshape.res_kw_1146_pu npts= 35040 interval=0.25 mult = (file=../../../../../profiles/res_kw_1146_pu.csv) qmult = (file=../../../../../profiles/res_kvar_1146_pu.csv)

New Loadshape.res_kw_236_pu npts= 35040 interval=0.25 mult = (file=../../../../../profiles/res_kw_236_pu.csv) qmult = (file=../../../../../profiles/res_kvar_236_pu.csv)
