New Load.load_p1ulv284_1 conn=wye bus1=p1ulv284.1 kV=0.12 Vminpu=0.8 Vmaxpu=1.2 model=1 kW=5.1496269559453545 kvar=1.5323145223091108 Phases=1 yearly=com_kw_14231_pu

New Load.load_p1ulv284_2 conn=wye bus1=p1ulv284.2 kV=0.12 Vminpu=0.8 Vmaxpu=1.2 model=1 kW=5.1496269559453545 kvar=1.5323145223091108 Phases=1 yearly=com_kw_14231_pu

New Load.load_p1ulv285_1 conn=wye bus1=p1ulv285.1 kV=0.12 Vminpu=0.8 Vmaxpu=1.2 model=1 kW=5.1496269559453545 kvar=1.5323145223091108 Phases=1 yearly=com_kw_14231_pu

New Load.load_p1ulv285_2 conn=wye bus1=p1ulv285.2 kV=0.12 Vminpu=0.8 Vmaxpu=1.2 model=1 kW=5.1496269559453545 kvar=1.5323145223091108 Phases=1 yearly=com_kw_14231_pu

New Load.load_p1ulv286_1 conn=wye bus1=p1ulv286.1 kV=0.12 Vminpu=0.8 Vmaxpu=1.2 model=1 kW=3.0721844660900577 kvar=0.7060482494440881 Phases=1 yearly=com_kw_13303_pu

New Load.load_p1ulv286_2 conn=wye bus1=p1ulv286.2 kV=0.12 Vminpu=0.8 Vmaxpu=1.2 model=1 kW=3.0721844660900577 kvar=0.7060482494440881 Phases=1 yearly=com_kw_13303_pu

New Load.load_p1ulv287_1 conn=wye bus1=p1ulv287.1 kV=0.12 Vminpu=0.8 Vmaxpu=1.2 model=1 kW=13.251431311430247 kvar=0.1493407165487586 Phases=1 yearly=com_kw_14976_pu

New Load.load_p1ulv287_2 conn=wye bus1=p1ulv287.2 kV=0.12 Vminpu=0.8 Vmaxpu=1.2 model=1 kW=13.251431311430247 kvar=0.1493407165487586 Phases=1 yearly=com_kw_14976_pu

New Load.load_p1ulv288_1 conn=wye bus1=p1ulv288.1 kV=0.12 Vminpu=0.8 Vmaxpu=1.2 model=1 kW=2.0380250144225394 kvar=0.5847764991219453 Phases=1 yearly=com_kw_15124_pu

New Load.load_p1ulv288_2 conn=wye bus1=p1ulv288.2 kV=0.12 Vminpu=0.8 Vmaxpu=1.2 model=1 kW=2.0380250144225394 kvar=0.5847764991219453 Phases=1 yearly=com_kw_15124_pu

New Load.load_p1ulv289_1 conn=wye bus1=p1ulv289.1 kV=0.12 Vminpu=0.8 Vmaxpu=1.2 model=1 kW=4.081735511976485 kvar=0.9882394625849078 Phases=1 yearly=com_kw_14650_pu

New Load.load_p1ulv289_2 conn=wye bus1=p1ulv289.2 kV=0.12 Vminpu=0.8 Vmaxpu=1.2 model=1 kW=4.081735511976485 kvar=0.9882394625849078 Phases=1 yearly=com_kw_14650_pu

New Load.load_p1ulv290_1 conn=wye bus1=p1ulv290.1 kV=0.12 Vminpu=0.8 Vmaxpu=1.2 model=1 kW=4.081735511976485 kvar=0.9882394625849078 Phases=1 yearly=com_kw_14650_pu

New Load.load_p1ulv290_2 conn=wye bus1=p1ulv290.2 kV=0.12 Vminpu=0.8 Vmaxpu=1.2 model=1 kW=4.081735511976485 kvar=0.9882394625849078 Phases=1 yearly=com_kw_14650_pu

New Load.load_p1ulv291_1 conn=wye bus1=p1ulv291.1 kV=0.12 Vminpu=0.8 Vmaxpu=1.2 model=1 kW=13.251431311430247 kvar=0.1493407165487586 Phases=1 yearly=com_kw_14976_pu

New Load.load_p1ulv291_2 conn=wye bus1=p1ulv291.2 kV=0.12 Vminpu=0.8 Vmaxpu=1.2 model=1 kW=13.251431311430247 kvar=0.1493407165487586 Phases=1 yearly=com_kw_14976_pu

New Load.load_p1ulv2790_1 conn=wye bus1=p1ulv2790.1 kV=0.12 Vminpu=0.8 Vmaxpu=1.2 model=1 kW=5.991917116566147 kvar=1.6692124001399427 Phases=1 yearly=res_kw_314_pu

New Load.load_p1ulv2790_2 conn=wye bus1=p1ulv2790.2 kV=0.12 Vminpu=0.8 Vmaxpu=1.2 model=1 kW=5.991917116566147 kvar=1.6692124001399427 Phases=1 yearly=res_kw_314_pu

New Load.load_p1ulv2791_1 conn=wye bus1=p1ulv2791.1 kV=0.12 Vminpu=0.8 Vmaxpu=1.2 model=1 kW=3.0502193323758338 kvar=0.7068547525403183 Phases=1 yearly=res_kw_407_pu

New Load.load_p1ulv2791_2 conn=wye bus1=p1ulv2791.2 kV=0.12 Vminpu=0.8 Vmaxpu=1.2 model=1 kW=3.0502193323758338 kvar=0.7068547525403183 Phases=1 yearly=res_kw_407_pu

New Load.load_p1ulv2792_1 conn=wye bus1=p1ulv2792.1 kV=0.12 Vminpu=0.8 Vmaxpu=1.2 model=1 kW=3.469521951913567 kvar=0.9490620687569232 Phases=1 yearly=res_kw_825_pu

New Load.load_p1ulv2792_2 conn=wye bus1=p1ulv2792.2 kV=0.12 Vminpu=0.8 Vmaxpu=1.2 model=1 kW=3.469521951913567 kvar=0.9490620687569232 Phases=1 yearly=res_kw_825_pu

New Load.load_p1ulv2793_1 conn=wye bus1=p1ulv2793.1 kV=0.12 Vminpu=0.8 Vmaxpu=1.2 model=1 kW=1.8636614682402992 kvar=0.5015179682387616 Phases=1 yearly=res_kw_532_pu

New Load.load_p1ulv2793_2 conn=wye bus1=p1ulv2793.2 kV=0.12 Vminpu=0.8 Vmaxpu=1.2 model=1 kW=1.8636614682402992 kvar=0.5015179682387616 Phases=1 yearly=res_kw_532_pu

New Load.load_p1ulv2794_1 conn=wye bus1=p1ulv2794.1 kV=0.12 Vminpu=0.8 Vmaxpu=1.2 model=1 kW=7.820072877358693 kvar=1.759853089528969 Phases=1 yearly=res_kw_97_pu

New Load.load_p1ulv2794_2 conn=wye bus1=p1ulv2794.2 kV=0.12 Vminpu=0.8 Vmaxpu=1.2 model=1 kW=7.820072877358693 kvar=1.759853089528969 Phases=1 yearly=res_kw_97_pu

New Load.load_p1ulv2795_1 conn=wye bus1=p1ulv2795.1 kV=0.12 Vminpu=0.8 Vmaxpu=1.2 model=1 kW=6.817994061838357 kvar=0.9100697715919355 Phases=1 yearly=res_kw_1099_pu

New Load.load_p1ulv2795_2 conn=wye bus1=p1ulv2795.2 kV=0.12 Vminpu=0.8 Vmaxpu=1.2 model=1 kW=6.817994061838357 kvar=0.9100697715919355 Phases=1 yearly=res_kw_1099_pu

New Load.load_p1ulv2796_1 conn=wye bus1=p1ulv2796.1 kV=0.12 Vminpu=0.8 Vmaxpu=1.2 model=1 kW=5.467656521863414 kvar=1.366707835572797 Phases=1 yearly=res_kw_953_pu

New Load.load_p1ulv2796_2 conn=wye bus1=p1ulv2796.2 kV=0.12 Vminpu=0.8 Vmaxpu=1.2 model=1 kW=5.467656521863414 kvar=1.366707835572797 Phases=1 yearly=res_kw_953_pu

New Load.load_p1ulv2797_1 conn=wye bus1=p1ulv2797.1 kV=0.12 Vminpu=0.8 Vmaxpu=1.2 model=1 kW=2.6241521841182514 kvar=0.8429304779950015 Phases=1 yearly=res_kw_33_pu

New Load.load_p1ulv2797_2 conn=wye bus1=p1ulv2797.2 kV=0.12 Vminpu=0.8 Vmaxpu=1.2 model=1 kW=2.6241521841182514 kvar=0.8429304779950015 Phases=1 yearly=res_kw_33_pu

New Load.load_p1ulv2799_1 conn=wye bus1=p1ulv2799.1 kV=0.12 Vminpu=0.8 Vmaxpu=1.2 model=1 kW=3.4468581914223817 kvar=1.1411197390818253 Phases=1 yearly=res_kw_250_pu

New Load.load_p1ulv2799_2 conn=wye bus1=p1ulv2799.2 kV=0.12 Vminpu=0.8 Vmaxpu=1.2 model=1 kW=3.4468581914223817 kvar=1.1411197390818253 Phases=1 yearly=res_kw_250_pu

New Load.load_p1ulv2800_1 conn=wye bus1=p1ulv2800.1 kV=0.12 Vminpu=0.8 Vmaxpu=1.2 model=1 kW=7.235767165926777 kvar=2.6686267970114135 Phases=1 yearly=res_kw_652_pu

New Load.load_p1ulv2800_2 conn=wye bus1=p1ulv2800.2 kV=0.12 Vminpu=0.8 Vmaxpu=1.2 model=1 kW=7.235767165926777 kvar=2.6686267970114135 Phases=1 yearly=res_kw_652_pu

New Load.load_p1ulv2801_1 conn=wye bus1=p1ulv2801.1 kV=0.12 Vminpu=0.8 Vmaxpu=1.2 model=1 kW=6.817994061838357 kvar=0.9100697715919355 Phases=1 yearly=res_kw_1099_pu

New Load.load_p1ulv2801_2 conn=wye bus1=p1ulv2801.2 kV=0.12 Vminpu=0.8 Vmaxpu=1.2 model=1 kW=6.817994061838357 kvar=0.9100697715919355 Phases=1 yearly=res_kw_1099_pu

New Load.load_p1ulv2802_1 conn=wye bus1=p1ulv2802.1 kV=0.12 Vminpu=0.8 Vmaxpu=1.2 model=1 kW=5.493107438910514 kvar=1.5415823949133614 Phases=1 yearly=res_kw_1084_pu

New Load.load_p1ulv2802_2 conn=wye bus1=p1ulv2802.2 kV=0.12 Vminpu=0.8 Vmaxpu=1.2 model=1 kW=5.493107438910514 kvar=1.5415823949133614 Phases=1 yearly=res_kw_1084_pu

New Load.load_p1ulv2803_1 conn=wye bus1=p1ulv2803.1 kV=0.12 Vminpu=0.8 Vmaxpu=1.2 model=1 kW=10.385223275469155 kvar=4.238948256103666 Phases=1 yearly=res_kw_146_pu

New Load.load_p1ulv2803_2 conn=wye bus1=p1ulv2803.2 kV=0.12 Vminpu=0.8 Vmaxpu=1.2 model=1 kW=10.385223275469155 kvar=4.238948256103666 Phases=1 yearly=res_kw_146_pu

New Load.load_p1ulv2804_1 conn=wye bus1=p1ulv2804.1 kV=0.12 Vminpu=0.8 Vmaxpu=1.2 model=1 kW=8.01962100453296 kvar=1.9011506674959975 Phases=1 yearly=res_kw_380_pu

New Load.load_p1ulv2804_2 conn=wye bus1=p1ulv2804.2 kV=0.12 Vminpu=0.8 Vmaxpu=1.2 model=1 kW=8.01962100453296 kvar=1.9011506674959975 Phases=1 yearly=res_kw_380_pu

New Load.load_p1ulv2805_1 conn=wye bus1=p1ulv2805.1 kV=0.12 Vminpu=0.8 Vmaxpu=1.2 model=1 kW=4.4719654544990375 kvar=1.0992469987144322 Phases=1 yearly=res_kw_1157_pu

New Load.load_p1ulv2805_2 conn=wye bus1=p1ulv2805.2 kV=0.12 Vminpu=0.8 Vmaxpu=1.2 model=1 kW=4.4719654544990375 kvar=1.0992469987144322 Phases=1 yearly=res_kw_1157_pu

New Load.load_p1ulv2806_1 conn=wye bus1=p1ulv2806.1 kV=0.12 Vminpu=0.8 Vmaxpu=1.2 model=1 kW=4.658663502989286 kvar=1.3388389434895354 Phases=1 yearly=res_kw_182_pu

New Load.load_p1ulv2806_2 conn=wye bus1=p1ulv2806.2 kV=0.12 Vminpu=0.8 Vmaxpu=1.2 model=1 kW=4.658663502989286 kvar=1.3388389434895354 Phases=1 yearly=res_kw_182_pu

New Load.load_p1ulv2807_1 conn=wye bus1=p1ulv2807.1 kV=0.12 Vminpu=0.8 Vmaxpu=1.2 model=1 kW=2.252586941983099 kvar=1.0135983600233158 Phases=1 yearly=res_kw_853_pu

New Load.load_p1ulv2807_2 conn=wye bus1=p1ulv2807.2 kV=0.12 Vminpu=0.8 Vmaxpu=1.2 model=1 kW=2.252586941983099 kvar=1.0135983600233158 Phases=1 yearly=res_kw_853_pu

New Load.load_p1ulv2808_1 conn=wye bus1=p1ulv2808.1 kV=0.12 Vminpu=0.8 Vmaxpu=1.2 model=1 kW=2.1376631749204993 kvar=0.6218033466021168 Phases=1 yearly=res_kw_93_pu

New Load.load_p1ulv2808_2 conn=wye bus1=p1ulv2808.2 kV=0.12 Vminpu=0.8 Vmaxpu=1.2 model=1 kW=2.1376631749204993 kvar=0.6218033466021168 Phases=1 yearly=res_kw_93_pu

New Load.load_p1ulv2809_1 conn=wye bus1=p1ulv2809.1 kV=0.12 Vminpu=0.8 Vmaxpu=1.2 model=1 kW=7.235767165926777 kvar=2.6686267970114135 Phases=1 yearly=res_kw_652_pu

New Load.load_p1ulv2809_2 conn=wye bus1=p1ulv2809.2 kV=0.12 Vminpu=0.8 Vmaxpu=1.2 model=1 kW=7.235767165926777 kvar=2.6686267970114135 Phases=1 yearly=res_kw_652_pu

New Load.load_p1ulv2810_1 conn=wye bus1=p1ulv2810.1 kV=0.12 Vminpu=0.8 Vmaxpu=1.2 model=1 kW=11.506702661284509 kvar=3.22329926547824 Phases=1 yearly=res_kw_231_pu

New Load.load_p1ulv2810_2 conn=wye bus1=p1ulv2810.2 kV=0.12 Vminpu=0.8 Vmaxpu=1.2 model=1 kW=11.506702661284509 kvar=3.22329926547824 Phases=1 yearly=res_kw_231_pu

New Load.load_p1ulv2811_1 conn=wye bus1=p1ulv2811.1 kV=0.12 Vminpu=0.8 Vmaxpu=1.2 model=1 kW=10.385223275469155 kvar=4.238948256103666 Phases=1 yearly=res_kw_146_pu

New Load.load_p1ulv2811_2 conn=wye bus1=p1ulv2811.2 kV=0.12 Vminpu=0.8 Vmaxpu=1.2 model=1 kW=10.385223275469155 kvar=4.238948256103666 Phases=1 yearly=res_kw_146_pu

New Load.load_p1ulv2812_1 conn=wye bus1=p1ulv2812.1 kV=0.12 Vminpu=0.8 Vmaxpu=1.2 model=1 kW=13.098094558867626 kvar=1.9465584989288183 Phases=1 yearly=res_kw_795_pu

New Load.load_p1ulv2812_2 conn=wye bus1=p1ulv2812.2 kV=0.12 Vminpu=0.8 Vmaxpu=1.2 model=1 kW=13.098094558867626 kvar=1.9465584989288183 Phases=1 yearly=res_kw_795_pu

New Load.load_p1ulv2813_1 conn=wye bus1=p1ulv2813.1 kV=0.12 Vminpu=0.8 Vmaxpu=1.2 model=1 kW=7.935406333880378 kvar=2.9734713630513365 Phases=1 yearly=res_kw_272_pu

New Load.load_p1ulv2813_2 conn=wye bus1=p1ulv2813.2 kV=0.12 Vminpu=0.8 Vmaxpu=1.2 model=1 kW=7.935406333880378 kvar=2.9734713630513365 Phases=1 yearly=res_kw_272_pu

New Load.load_p1ulv2814_1 conn=wye bus1=p1ulv2814.1 kV=0.12 Vminpu=0.8 Vmaxpu=1.2 model=1 kW=7.935406333880378 kvar=2.9734713630513365 Phases=1 yearly=res_kw_272_pu

New Load.load_p1ulv2814_2 conn=wye bus1=p1ulv2814.2 kV=0.12 Vminpu=0.8 Vmaxpu=1.2 model=1 kW=7.935406333880378 kvar=2.9734713630513365 Phases=1 yearly=res_kw_272_pu

New Load.load_p1ulv2815_1 conn=wye bus1=p1ulv2815.1 kV=0.12 Vminpu=0.8 Vmaxpu=1.2 model=1 kW=6.817994061838357 kvar=0.9100697715919355 Phases=1 yearly=res_kw_1099_pu

New Load.load_p1ulv2815_2 conn=wye bus1=p1ulv2815.2 kV=0.12 Vminpu=0.8 Vmaxpu=1.2 model=1 kW=6.817994061838357 kvar=0.9100697715919355 Phases=1 yearly=res_kw_1099_pu

New Load.load_p1ulv2816_1 conn=wye bus1=p1ulv2816.1 kV=0.12 Vminpu=0.8 Vmaxpu=1.2 model=1 kW=7.235767165926777 kvar=2.6686267970114135 Phases=1 yearly=res_kw_652_pu

New Load.load_p1ulv2816_2 conn=wye bus1=p1ulv2816.2 kV=0.12 Vminpu=0.8 Vmaxpu=1.2 model=1 kW=7.235767165926777 kvar=2.6686267970114135 Phases=1 yearly=res_kw_652_pu

New Load.load_p1ulv2817_1 conn=wye bus1=p1ulv2817.1 kV=0.12 Vminpu=0.8 Vmaxpu=1.2 model=1 kW=1.8636614682402992 kvar=0.5015179682387616 Phases=1 yearly=res_kw_532_pu

New Load.load_p1ulv2817_2 conn=wye bus1=p1ulv2817.2 kV=0.12 Vminpu=0.8 Vmaxpu=1.2 model=1 kW=1.8636614682402992 kvar=0.5015179682387616 Phases=1 yearly=res_kw_532_pu

New Load.load_p1ulv2818_1 conn=wye bus1=p1ulv2818.1 kV=0.12 Vminpu=0.8 Vmaxpu=1.2 model=1 kW=4.04330412347979 kvar=1.1447656790699707 Phases=1 yearly=res_kw_307_pu

New Load.load_p1ulv2818_2 conn=wye bus1=p1ulv2818.2 kV=0.12 Vminpu=0.8 Vmaxpu=1.2 model=1 kW=4.04330412347979 kvar=1.1447656790699707 Phases=1 yearly=res_kw_307_pu

New Load.load_p1ulv2820_1 conn=wye bus1=p1ulv2820.1 kV=0.12 Vminpu=0.8 Vmaxpu=1.2 model=1 kW=7.036810175504098 kvar=0.6472607436556739 Phases=1 yearly=res_kw_552_pu

New Load.load_p1ulv2820_2 conn=wye bus1=p1ulv2820.2 kV=0.12 Vminpu=0.8 Vmaxpu=1.2 model=1 kW=7.036810175504098 kvar=0.6472607436556739 Phases=1 yearly=res_kw_552_pu

New Load.load_p1ulv2821_1 conn=wye bus1=p1ulv2821.1 kV=0.12 Vminpu=0.8 Vmaxpu=1.2 model=1 kW=16.1242750328951 kvar=2.894813042282885 Phases=1 yearly=res_kw_222_pu

New Load.load_p1ulv2821_2 conn=wye bus1=p1ulv2821.2 kV=0.12 Vminpu=0.8 Vmaxpu=1.2 model=1 kW=16.1242750328951 kvar=2.894813042282885 Phases=1 yearly=res_kw_222_pu

New Load.load_p1ulv2822_1 conn=wye bus1=p1ulv2822.1 kV=0.12 Vminpu=0.8 Vmaxpu=1.2 model=1 kW=7.190990944658071 kvar=1.372777711240934 Phases=1 yearly=res_kw_142_pu

New Load.load_p1ulv2822_2 conn=wye bus1=p1ulv2822.2 kV=0.12 Vminpu=0.8 Vmaxpu=1.2 model=1 kW=7.190990944658071 kvar=1.372777711240934 Phases=1 yearly=res_kw_142_pu

New Load.load_p1ulv2823_1 conn=wye bus1=p1ulv2823.1 kV=0.12 Vminpu=0.8 Vmaxpu=1.2 model=1 kW=7.235767165926777 kvar=2.6686267970114135 Phases=1 yearly=res_kw_652_pu

New Load.load_p1ulv2823_2 conn=wye bus1=p1ulv2823.2 kV=0.12 Vminpu=0.8 Vmaxpu=1.2 model=1 kW=7.235767165926777 kvar=2.6686267970114135 Phases=1 yearly=res_kw_652_pu

New Load.load_p1ulv2824_1 conn=wye bus1=p1ulv2824.1 kV=0.12 Vminpu=0.8 Vmaxpu=1.2 model=1 kW=6.817994061838357 kvar=0.9100697715919355 Phases=1 yearly=res_kw_1099_pu

New Load.load_p1ulv2824_2 conn=wye bus1=p1ulv2824.2 kV=0.12 Vminpu=0.8 Vmaxpu=1.2 model=1 kW=6.817994061838357 kvar=0.9100697715919355 Phases=1 yearly=res_kw_1099_pu

New Load.load_p1ulv2825 conn=wye bus1=p1ulv2825.1.2.3 kV=0.48 Vminpu=0.8 Vmaxpu=1.2 model=1 kW=19.799807357776206 kvar=3.228704051982927 Phases=3 yearly=res_kw_794_pu

New Load.load_p1ulv4457_1 conn=wye bus1=p1ulv4457.1 kV=0.12 Vminpu=0.8 Vmaxpu=1.2 model=1 kW=5.234678621012209 kvar=0.9754045266364657 Phases=1 yearly=res_kw_929_pu

New Load.load_p1ulv4457_2 conn=wye bus1=p1ulv4457.2 kV=0.12 Vminpu=0.8 Vmaxpu=1.2 model=1 kW=5.234678621012209 kvar=0.9754045266364657 Phases=1 yearly=res_kw_929_pu

New Load.load_p1ulv4458_1 conn=wye bus1=p1ulv4458.1 kV=0.12 Vminpu=0.8 Vmaxpu=1.2 model=1 kW=5.991917116566147 kvar=1.6692124001399427 Phases=1 yearly=res_kw_314_pu

New Load.load_p1ulv4458_2 conn=wye bus1=p1ulv4458.2 kV=0.12 Vminpu=0.8 Vmaxpu=1.2 model=1 kW=5.991917116566147 kvar=1.6692124001399427 Phases=1 yearly=res_kw_314_pu

New Load.load_p1ulv4459_1 conn=wye bus1=p1ulv4459.1 kV=0.12 Vminpu=0.8 Vmaxpu=1.2 model=1 kW=2.40000228705824 kvar=1.0173787262529668 Phases=1 yearly=res_kw_1205_pu

New Load.load_p1ulv4459_2 conn=wye bus1=p1ulv4459.2 kV=0.12 Vminpu=0.8 Vmaxpu=1.2 model=1 kW=2.40000228705824 kvar=1.0173787262529668 Phases=1 yearly=res_kw_1205_pu

New Load.load_p1ulv4460_1 conn=wye bus1=p1ulv4460.1 kV=0.12 Vminpu=0.8 Vmaxpu=1.2 model=1 kW=7.721615461137303 kvar=1.7536039230317741 Phases=1 yearly=res_kw_1013_pu

New Load.load_p1ulv4460_2 conn=wye bus1=p1ulv4460.2 kV=0.12 Vminpu=0.8 Vmaxpu=1.2 model=1 kW=7.721615461137303 kvar=1.7536039230317741 Phases=1 yearly=res_kw_1013_pu

New Load.load_p1ulv4461_1 conn=wye bus1=p1ulv4461.1 kV=0.12 Vminpu=0.8 Vmaxpu=1.2 model=1 kW=5.630366406134325 kvar=1.4654988363403099 Phases=1 yearly=res_kw_251_pu

New Load.load_p1ulv4461_2 conn=wye bus1=p1ulv4461.2 kV=0.12 Vminpu=0.8 Vmaxpu=1.2 model=1 kW=5.630366406134325 kvar=1.4654988363403099 Phases=1 yearly=res_kw_251_pu

New Load.load_p1ulv4462_1 conn=wye bus1=p1ulv4462.1 kV=0.12 Vminpu=0.8 Vmaxpu=1.2 model=1 kW=6.139488924452324 kvar=1.0282575631325632 Phases=1 yearly=res_kw_421_pu

New Load.load_p1ulv4462_2 conn=wye bus1=p1ulv4462.2 kV=0.12 Vminpu=0.8 Vmaxpu=1.2 model=1 kW=6.139488924452324 kvar=1.0282575631325632 Phases=1 yearly=res_kw_421_pu

New Load.load_p1ulv4463_1 conn=wye bus1=p1ulv4463.1 kV=0.12 Vminpu=0.8 Vmaxpu=1.2 model=1 kW=7.195337616187572 kvar=1.3536865792954904 Phases=1 yearly=res_kw_462_pu

New Load.load_p1ulv4463_2 conn=wye bus1=p1ulv4463.2 kV=0.12 Vminpu=0.8 Vmaxpu=1.2 model=1 kW=7.195337616187572 kvar=1.3536865792954904 Phases=1 yearly=res_kw_462_pu

New Load.load_p1ulv4464_1 conn=wye bus1=p1ulv4464.1 kV=0.12 Vminpu=0.8 Vmaxpu=1.2 model=1 kW=8.020736002000627 kvar=0.8077597125403054 Phases=1 yearly=res_kw_411_pu

New Load.load_p1ulv4464_2 conn=wye bus1=p1ulv4464.2 kV=0.12 Vminpu=0.8 Vmaxpu=1.2 model=1 kW=8.020736002000627 kvar=0.8077597125403054 Phases=1 yearly=res_kw_411_pu

New Load.load_p1ulv4465_1 conn=wye bus1=p1ulv4465.1 kV=0.12 Vminpu=0.8 Vmaxpu=1.2 model=1 kW=3.4468581914223817 kvar=1.1411197390818253 Phases=1 yearly=res_kw_250_pu

New Load.load_p1ulv4465_2 conn=wye bus1=p1ulv4465.2 kV=0.12 Vminpu=0.8 Vmaxpu=1.2 model=1 kW=3.4468581914223817 kvar=1.1411197390818253 Phases=1 yearly=res_kw_250_pu

New Load.load_p1ulv4466_1 conn=wye bus1=p1ulv4466.1 kV=0.12 Vminpu=0.8 Vmaxpu=1.2 model=1 kW=3.8748715750127736 kvar=1.5614372175332516 Phases=1 yearly=res_kw_517_pu

New Load.load_p1ulv4466_2 conn=wye bus1=p1ulv4466.2 kV=0.12 Vminpu=0.8 Vmaxpu=1.2 model=1 kW=3.8748715750127736 kvar=1.5614372175332516 Phases=1 yearly=res_kw_517_pu

New Load.load_p1ulv4467_1 conn=wye bus1=p1ulv4467.1 kV=0.12 Vminpu=0.8 Vmaxpu=1.2 model=1 kW=6.136100367362728 kvar=1.4521187609701354 Phases=1 yearly=res_kw_362_pu

New Load.load_p1ulv4467_2 conn=wye bus1=p1ulv4467.2 kV=0.12 Vminpu=0.8 Vmaxpu=1.2 model=1 kW=6.136100367362728 kvar=1.4521187609701354 Phases=1 yearly=res_kw_362_pu

New Load.load_p1ulv4468_1 conn=wye bus1=p1ulv4468.1 kV=0.12 Vminpu=0.8 Vmaxpu=1.2 model=1 kW=3.8748715750127736 kvar=1.5614372175332516 Phases=1 yearly=res_kw_517_pu

New Load.load_p1ulv4468_2 conn=wye bus1=p1ulv4468.2 kV=0.12 Vminpu=0.8 Vmaxpu=1.2 model=1 kW=3.8748715750127736 kvar=1.5614372175332516 Phases=1 yearly=res_kw_517_pu

New Load.load_p1ulv4469_1 conn=wye bus1=p1ulv4469.1 kV=0.12 Vminpu=0.8 Vmaxpu=1.2 model=1 kW=3.4468581914223817 kvar=1.1411197390818253 Phases=1 yearly=res_kw_250_pu

New Load.load_p1ulv4469_2 conn=wye bus1=p1ulv4469.2 kV=0.12 Vminpu=0.8 Vmaxpu=1.2 model=1 kW=3.4468581914223817 kvar=1.1411197390818253 Phases=1 yearly=res_kw_250_pu

New Load.load_p1ulv4470_1 conn=wye bus1=p1ulv4470.1 kV=0.12 Vminpu=0.8 Vmaxpu=1.2 model=1 kW=5.5259285212797185 kvar=1.453865144609132 Phases=1 yearly=res_kw_216_pu

New Load.load_p1ulv4470_2 conn=wye bus1=p1ulv4470.2 kV=0.12 Vminpu=0.8 Vmaxpu=1.2 model=1 kW=5.5259285212797185 kvar=1.453865144609132 Phases=1 yearly=res_kw_216_pu

New Load.load_p1ulv4471_1 conn=wye bus1=p1ulv4471.1 kV=0.12 Vminpu=0.8 Vmaxpu=1.2 model=1 kW=3.4468581914223817 kvar=1.1411197390818253 Phases=1 yearly=res_kw_250_pu

New Load.load_p1ulv4471_2 conn=wye bus1=p1ulv4471.2 kV=0.12 Vminpu=0.8 Vmaxpu=1.2 model=1 kW=3.4468581914223817 kvar=1.1411197390818253 Phases=1 yearly=res_kw_250_pu

New Load.load_p1ulv4472_1 conn=wye bus1=p1ulv4472.1 kV=0.12 Vminpu=0.8 Vmaxpu=1.2 model=1 kW=2.40000228705824 kvar=1.0173787262529668 Phases=1 yearly=res_kw_1205_pu

New Load.load_p1ulv4472_2 conn=wye bus1=p1ulv4472.2 kV=0.12 Vminpu=0.8 Vmaxpu=1.2 model=1 kW=2.40000228705824 kvar=1.0173787262529668 Phases=1 yearly=res_kw_1205_pu

New Load.load_p1ulv4473_1 conn=wye bus1=p1ulv4473.1 kV=0.12 Vminpu=0.8 Vmaxpu=1.2 model=1 kW=6.897997484512368 kvar=1.5073573946072503 Phases=1 yearly=res_kw_40_pu

New Load.load_p1ulv4473_2 conn=wye bus1=p1ulv4473.2 kV=0.12 Vminpu=0.8 Vmaxpu=1.2 model=1 kW=6.897997484512368 kvar=1.5073573946072503 Phases=1 yearly=res_kw_40_pu

New Load.load_p1ulv4474_1 conn=wye bus1=p1ulv4474.1 kV=0.12 Vminpu=0.8 Vmaxpu=1.2 model=1 kW=5.436729579526792 kvar=1.2488470964899614 Phases=1 yearly=res_kw_454_pu

New Load.load_p1ulv4474_2 conn=wye bus1=p1ulv4474.2 kV=0.12 Vminpu=0.8 Vmaxpu=1.2 model=1 kW=5.436729579526792 kvar=1.2488470964899614 Phases=1 yearly=res_kw_454_pu

New Load.load_p1ulv4475_1 conn=wye bus1=p1ulv4475.1 kV=0.12 Vminpu=0.8 Vmaxpu=1.2 model=1 kW=6.007202613688192 kvar=1.5186407953688474 Phases=1 yearly=res_kw_20_pu

New Load.load_p1ulv4475_2 conn=wye bus1=p1ulv4475.2 kV=0.12 Vminpu=0.8 Vmaxpu=1.2 model=1 kW=6.007202613688192 kvar=1.5186407953688474 Phases=1 yearly=res_kw_20_pu

New Load.load_p1ulv4476_1 conn=wye bus1=p1ulv4476.1 kV=0.12 Vminpu=0.8 Vmaxpu=1.2 model=1 kW=2.6241521841182514 kvar=0.8429304779950015 Phases=1 yearly=res_kw_33_pu

New Load.load_p1ulv4476_2 conn=wye bus1=p1ulv4476.2 kV=0.12 Vminpu=0.8 Vmaxpu=1.2 model=1 kW=2.6241521841182514 kvar=0.8429304779950015 Phases=1 yearly=res_kw_33_pu

New Load.load_p1ulv4477_1 conn=wye bus1=p1ulv4477.1 kV=0.12 Vminpu=0.8 Vmaxpu=1.2 model=1 kW=5.840853226378247 kvar=1.1903019185873431 Phases=1 yearly=res_kw_892_pu

New Load.load_p1ulv4477_2 conn=wye bus1=p1ulv4477.2 kV=0.12 Vminpu=0.8 Vmaxpu=1.2 model=1 kW=5.840853226378247 kvar=1.1903019185873431 Phases=1 yearly=res_kw_892_pu

New Load.load_p1ulv4478_1 conn=wye bus1=p1ulv4478.1 kV=0.12 Vminpu=0.8 Vmaxpu=1.2 model=1 kW=7.195337616187572 kvar=1.3536865792954904 Phases=1 yearly=res_kw_462_pu

New Load.load_p1ulv4478_2 conn=wye bus1=p1ulv4478.2 kV=0.12 Vminpu=0.8 Vmaxpu=1.2 model=1 kW=7.195337616187572 kvar=1.3536865792954904 Phases=1 yearly=res_kw_462_pu

New Load.load_p1ulv4479_1 conn=wye bus1=p1ulv4479.1 kV=0.12 Vminpu=0.8 Vmaxpu=1.2 model=1 kW=2.623267981089487 kvar=1.212519304398851 Phases=1 yearly=res_kw_452_pu

New Load.load_p1ulv4479_2 conn=wye bus1=p1ulv4479.2 kV=0.12 Vminpu=0.8 Vmaxpu=1.2 model=1 kW=2.623267981089487 kvar=1.212519304398851 Phases=1 yearly=res_kw_452_pu

New Load.load_p1ulv4480_1 conn=wye bus1=p1ulv4480.1 kV=0.12 Vminpu=0.8 Vmaxpu=1.2 model=1 kW=4.78815623948431 kvar=1.2110296754961107 Phases=1 yearly=res_kw_842_pu

New Load.load_p1ulv4480_2 conn=wye bus1=p1ulv4480.2 kV=0.12 Vminpu=0.8 Vmaxpu=1.2 model=1 kW=4.78815623948431 kvar=1.2110296754961107 Phases=1 yearly=res_kw_842_pu

New Load.load_p1ulv4481_1 conn=wye bus1=p1ulv4481.1 kV=0.12 Vminpu=0.8 Vmaxpu=1.2 model=1 kW=3.3701610259235064 kvar=1.065454990641787 Phases=1 yearly=res_kw_1037_pu

New Load.load_p1ulv4481_2 conn=wye bus1=p1ulv4481.2 kV=0.12 Vminpu=0.8 Vmaxpu=1.2 model=1 kW=3.3701610259235064 kvar=1.065454990641787 Phases=1 yearly=res_kw_1037_pu

New Load.load_p1ulv4482_1 conn=wye bus1=p1ulv4482.1 kV=0.12 Vminpu=0.8 Vmaxpu=1.2 model=1 kW=4.78815623948431 kvar=1.2110296754961107 Phases=1 yearly=res_kw_842_pu

New Load.load_p1ulv4482_2 conn=wye bus1=p1ulv4482.2 kV=0.12 Vminpu=0.8 Vmaxpu=1.2 model=1 kW=4.78815623948431 kvar=1.2110296754961107 Phases=1 yearly=res_kw_842_pu

New Load.load_p1ulv4483_1 conn=wye bus1=p1ulv4483.1 kV=0.12 Vminpu=0.8 Vmaxpu=1.2 model=1 kW=6.897997484512368 kvar=1.5073573946072503 Phases=1 yearly=res_kw_40_pu

New Load.load_p1ulv4483_2 conn=wye bus1=p1ulv4483.2 kV=0.12 Vminpu=0.8 Vmaxpu=1.2 model=1 kW=6.897997484512368 kvar=1.5073573946072503 Phases=1 yearly=res_kw_40_pu

New Load.load_p1ulv4484_1 conn=wye bus1=p1ulv4484.1 kV=0.12 Vminpu=0.8 Vmaxpu=1.2 model=1 kW=2.6241521841182514 kvar=0.8429304779950015 Phases=1 yearly=res_kw_33_pu

New Load.load_p1ulv4484_2 conn=wye bus1=p1ulv4484.2 kV=0.12 Vminpu=0.8 Vmaxpu=1.2 model=1 kW=2.6241521841182514 kvar=0.8429304779950015 Phases=1 yearly=res_kw_33_pu

New Load.load_p1ulv4485_1 conn=wye bus1=p1ulv4485.1 kV=0.12 Vminpu=0.8 Vmaxpu=1.2 model=1 kW=5.286987923172412 kvar=0.912918656895422 Phases=1 yearly=res_kw_75_pu

New Load.load_p1ulv4485_2 conn=wye bus1=p1ulv4485.2 kV=0.12 Vminpu=0.8 Vmaxpu=1.2 model=1 kW=5.286987923172412 kvar=0.912918656895422 Phases=1 yearly=res_kw_75_pu

New Load.load_p1ulv4486_1 conn=wye bus1=p1ulv4486.1 kV=0.12 Vminpu=0.8 Vmaxpu=1.2 model=1 kW=3.469521951913567 kvar=0.9490620687569232 Phases=1 yearly=res_kw_825_pu

New Load.load_p1ulv4486_2 conn=wye bus1=p1ulv4486.2 kV=0.12 Vminpu=0.8 Vmaxpu=1.2 model=1 kW=3.469521951913567 kvar=0.9490620687569232 Phases=1 yearly=res_kw_825_pu

New Load.load_p1ulv4487_1 conn=wye bus1=p1ulv4487.1 kV=0.12 Vminpu=0.8 Vmaxpu=1.2 model=1 kW=3.469521951913567 kvar=0.9490620687569232 Phases=1 yearly=res_kw_825_pu

New Load.load_p1ulv4487_2 conn=wye bus1=p1ulv4487.2 kV=0.12 Vminpu=0.8 Vmaxpu=1.2 model=1 kW=3.469521951913567 kvar=0.9490620687569232 Phases=1 yearly=res_kw_825_pu

New Load.load_p1ulv4488_1 conn=wye bus1=p1ulv4488.1 kV=0.12 Vminpu=0.8 Vmaxpu=1.2 model=1 kW=5.436729579526792 kvar=1.2488470964899614 Phases=1 yearly=res_kw_454_pu

New Load.load_p1ulv4488_2 conn=wye bus1=p1ulv4488.2 kV=0.12 Vminpu=0.8 Vmaxpu=1.2 model=1 kW=5.436729579526792 kvar=1.2488470964899614 Phases=1 yearly=res_kw_454_pu

New Load.load_p1ulv4489_1 conn=wye bus1=p1ulv4489.1 kV=0.12 Vminpu=0.8 Vmaxpu=1.2 model=1 kW=2.40000228705824 kvar=1.0173787262529668 Phases=1 yearly=res_kw_1205_pu

New Load.load_p1ulv4489_2 conn=wye bus1=p1ulv4489.2 kV=0.12 Vminpu=0.8 Vmaxpu=1.2 model=1 kW=2.40000228705824 kvar=1.0173787262529668 Phases=1 yearly=res_kw_1205_pu

New Load.load_p1ulv4490_1 conn=wye bus1=p1ulv4490.1 kV=0.12 Vminpu=0.8 Vmaxpu=1.2 model=1 kW=2.1376631749204993 kvar=0.6218033466021168 Phases=1 yearly=res_kw_93_pu

New Load.load_p1ulv4490_2 conn=wye bus1=p1ulv4490.2 kV=0.12 Vminpu=0.8 Vmaxpu=1.2 model=1 kW=2.1376631749204993 kvar=0.6218033466021168 Phases=1 yearly=res_kw_93_pu

New Load.load_p1ulv4491_1 conn=wye bus1=p1ulv4491.1 kV=0.12 Vminpu=0.8 Vmaxpu=1.2 model=1 kW=5.942686091683347 kvar=1.452957393533487 Phases=1 yearly=res_kw_772_pu

New Load.load_p1ulv4491_2 conn=wye bus1=p1ulv4491.2 kV=0.12 Vminpu=0.8 Vmaxpu=1.2 model=1 kW=5.942686091683347 kvar=1.452957393533487 Phases=1 yearly=res_kw_772_pu

New Load.load_p1ulv4492_1 conn=wye bus1=p1ulv4492.1 kV=0.12 Vminpu=0.8 Vmaxpu=1.2 model=1 kW=3.8029744718879392 kvar=1.1462670306842289 Phases=1 yearly=res_kw_263_pu

New Load.load_p1ulv4492_2 conn=wye bus1=p1ulv4492.2 kV=0.12 Vminpu=0.8 Vmaxpu=1.2 model=1 kW=3.8029744718879392 kvar=1.1462670306842289 Phases=1 yearly=res_kw_263_pu

New Load.load_p1ulv4493_1 conn=wye bus1=p1ulv4493.1 kV=0.12 Vminpu=0.8 Vmaxpu=1.2 model=1 kW=11.457721527492426 kvar=1.3801854390555242 Phases=1 yearly=res_kw_861_pu

New Load.load_p1ulv4493_2 conn=wye bus1=p1ulv4493.2 kV=0.12 Vminpu=0.8 Vmaxpu=1.2 model=1 kW=11.457721527492426 kvar=1.3801854390555242 Phases=1 yearly=res_kw_861_pu

New Load.load_p1ulv4494_1 conn=wye bus1=p1ulv4494.1 kV=0.12 Vminpu=0.8 Vmaxpu=1.2 model=1 kW=9.619945726024039 kvar=2.195594903972493 Phases=1 yearly=res_kw_211_pu

New Load.load_p1ulv4494_2 conn=wye bus1=p1ulv4494.2 kV=0.12 Vminpu=0.8 Vmaxpu=1.2 model=1 kW=9.619945726024039 kvar=2.195594903972493 Phases=1 yearly=res_kw_211_pu

New Load.load_p1ulv4495_1 conn=wye bus1=p1ulv4495.1 kV=0.12 Vminpu=0.8 Vmaxpu=1.2 model=1 kW=9.666699253995569 kvar=2.090221480167897 Phases=1 yearly=res_kw_46_pu

New Load.load_p1ulv4495_2 conn=wye bus1=p1ulv4495.2 kV=0.12 Vminpu=0.8 Vmaxpu=1.2 model=1 kW=9.666699253995569 kvar=2.090221480167897 Phases=1 yearly=res_kw_46_pu

New Load.load_p1ulv4496_1 conn=wye bus1=p1ulv4496.1 kV=0.12 Vminpu=0.8 Vmaxpu=1.2 model=1 kW=3.629714039262861 kvar=1.2034402112399032 Phases=1 yearly=res_kw_203_pu

New Load.load_p1ulv4496_2 conn=wye bus1=p1ulv4496.2 kV=0.12 Vminpu=0.8 Vmaxpu=1.2 model=1 kW=3.629714039262861 kvar=1.2034402112399032 Phases=1 yearly=res_kw_203_pu

New Load.load_p1ulv4497_1 conn=wye bus1=p1ulv4497.1 kV=0.12 Vminpu=0.8 Vmaxpu=1.2 model=1 kW=3.469521951913567 kvar=0.9490620687569232 Phases=1 yearly=res_kw_825_pu

New Load.load_p1ulv4497_2 conn=wye bus1=p1ulv4497.2 kV=0.12 Vminpu=0.8 Vmaxpu=1.2 model=1 kW=3.469521951913567 kvar=0.9490620687569232 Phases=1 yearly=res_kw_825_pu

New Load.load_p1ulv4498_1 conn=wye bus1=p1ulv4498.1 kV=0.12 Vminpu=0.8 Vmaxpu=1.2 model=1 kW=3.469521951913567 kvar=0.9490620687569232 Phases=1 yearly=res_kw_825_pu

New Load.load_p1ulv4498_2 conn=wye bus1=p1ulv4498.2 kV=0.12 Vminpu=0.8 Vmaxpu=1.2 model=1 kW=3.469521951913567 kvar=0.9490620687569232 Phases=1 yearly=res_kw_825_pu

New Load.load_p1ulv4499_1 conn=wye bus1=p1ulv4499.1 kV=0.12 Vminpu=0.8 Vmaxpu=1.2 model=1 kW=2.6241521841182514 kvar=0.8429304779950015 Phases=1 yearly=res_kw_33_pu

New Load.load_p1ulv4499_2 conn=wye bus1=p1ulv4499.2 kV=0.12 Vminpu=0.8 Vmaxpu=1.2 model=1 kW=2.6241521841182514 kvar=0.8429304779950015 Phases=1 yearly=res_kw_33_pu

New Load.load_p1ulv4500_1 conn=wye bus1=p1ulv4500.1 kV=0.12 Vminpu=0.8 Vmaxpu=1.2 model=1 kW=5.436729579526792 kvar=1.2488470964899614 Phases=1 yearly=res_kw_454_pu

New Load.load_p1ulv4500_2 conn=wye bus1=p1ulv4500.2 kV=0.12 Vminpu=0.8 Vmaxpu=1.2 model=1 kW=5.436729579526792 kvar=1.2488470964899614 Phases=1 yearly=res_kw_454_pu

New Load.load_p1ulv4501_1 conn=wye bus1=p1ulv4501.1 kV=0.12 Vminpu=0.8 Vmaxpu=1.2 model=1 kW=4.47171304939181 kvar=1.1676103385976955 Phases=1 yearly=res_kw_627_pu

New Load.load_p1ulv4501_2 conn=wye bus1=p1ulv4501.2 kV=0.12 Vminpu=0.8 Vmaxpu=1.2 model=1 kW=4.47171304939181 kvar=1.1676103385976955 Phases=1 yearly=res_kw_627_pu

New Load.load_p1ulv4502_1 conn=wye bus1=p1ulv4502.1 kV=0.12 Vminpu=0.8 Vmaxpu=1.2 model=1 kW=3.6844020253442458 kvar=1.4451491397155931 Phases=1 yearly=res_kw_1258_pu

New Load.load_p1ulv4502_2 conn=wye bus1=p1ulv4502.2 kV=0.12 Vminpu=0.8 Vmaxpu=1.2 model=1 kW=3.6844020253442458 kvar=1.4451491397155931 Phases=1 yearly=res_kw_1258_pu

New Load.load_p1ulv4503_1 conn=wye bus1=p1ulv4503.1 kV=0.12 Vminpu=0.8 Vmaxpu=1.2 model=1 kW=2.6241521841182514 kvar=0.8429304779950015 Phases=1 yearly=res_kw_33_pu

New Load.load_p1ulv4503_2 conn=wye bus1=p1ulv4503.2 kV=0.12 Vminpu=0.8 Vmaxpu=1.2 model=1 kW=2.6241521841182514 kvar=0.8429304779950015 Phases=1 yearly=res_kw_33_pu

New Load.load_p1ulv4504_1 conn=wye bus1=p1ulv4504.1 kV=0.12 Vminpu=0.8 Vmaxpu=1.2 model=1 kW=3.8748715750127736 kvar=1.5614372175332516 Phases=1 yearly=res_kw_517_pu

New Load.load_p1ulv4504_2 conn=wye bus1=p1ulv4504.2 kV=0.12 Vminpu=0.8 Vmaxpu=1.2 model=1 kW=3.8748715750127736 kvar=1.5614372175332516 Phases=1 yearly=res_kw_517_pu

New Load.load_p1ulv4505_1 conn=wye bus1=p1ulv4505.1 kV=0.12 Vminpu=0.8 Vmaxpu=1.2 model=1 kW=7.088530083600876 kvar=2.6134476319600712 Phases=1 yearly=res_kw_267_pu
