New Load.load_p1ulv1396_1 conn=wye bus1=p1ulv1396.1 kV=0.12 Vminpu=0.8 Vmaxpu=1.2 model=1 kW=4.011367424449208 kvar=0.8640708428586631 Phases=1 yearly=res_kw_259_pu

New Load.load_p1ulv1396_2 conn=wye bus1=p1ulv1396.2 kV=0.12 Vminpu=0.8 Vmaxpu=1.2 model=1 kW=4.011367424449208 kvar=0.8640708428586631 Phases=1 yearly=res_kw_259_pu

New Load.load_p1ulv1397_1 conn=wye bus1=p1ulv1396.1 kV=0.12 Vminpu=0.8 Vmaxpu=1.2 model=1 kW=1.8618983584330409 kvar=0.7337589993741062 Phases=1 yearly=res_kw_141_pu

New Load.load_p1ulv1397_2 conn=wye bus1=p1ulv1396.2 kV=0.12 Vminpu=0.8 Vmaxpu=1.2 model=1 kW=1.8618983584330409 kvar=0.7337589993741062 Phases=1 yearly=res_kw_141_pu

New Load.load_p1ulv1398_1 conn=wye bus1=p1ulv1398.1 kV=0.12 Vminpu=0.8 Vmaxpu=1.2 model=1 kW=1.8618983584330409 kvar=0.7337589993741062 Phases=1 yearly=res_kw_141_pu

New Load.load_p1ulv1398_2 conn=wye bus1=p1ulv1398.2 kV=0.12 Vminpu=0.8 Vmaxpu=1.2 model=1 kW=1.8618983584330409 kvar=0.7337589993741062 Phases=1 yearly=res_kw_141_pu

New Load.load_p1ulv1399_1 conn=wye bus1=p1ulv1399.1 kV=0.12 Vminpu=0.8 Vmaxpu=1.2 model=1 kW=1.8618983584330409 kvar=0.7337589993741062 Phases=1 yearly=res_kw_141_pu

New Load.load_p1ulv1399_2 conn=wye bus1=p1ulv1399.2 kV=0.12 Vminpu=0.8 Vmaxpu=1.2 model=1 kW=1.8618983584330409 kvar=0.7337589993741062 Phases=1 yearly=res_kw_141_pu

New Load.load_p1ulv1400_1 conn=wye bus1=p1ulv1399.1 kV=0.12 Vminpu=0.8 Vmaxpu=1.2 model=1 kW=2.1376631749204993 kvar=0.6218033466021168 Phases=1 yearly=res_kw_93_pu

New Load.load_p1ulv1400_2 conn=wye bus1=p1ulv1399.2 kV=0.12 Vminpu=0.8 Vmaxpu=1.2 model=1 kW=2.1376631749204993 kvar=0.6218033466021168 Phases=1 yearly=res_kw_93_pu

New Load.load_p1ulv1401_1 conn=wye bus1=p1ulv1401.1 kV=0.12 Vminpu=0.8 Vmaxpu=1.2 model=1 kW=2.1894046505184286 kvar=0.7281040757251952 Phases=1 yearly=res_kw_1042_pu

New Load.load_p1ulv1401_2 conn=wye bus1=p1ulv1401.2 kV=0.12 Vminpu=0.8 Vmaxpu=1.2 model=1 kW=2.1894046505184286 kvar=0.7281040757251952 Phases=1 yearly=res_kw_1042_pu

New Load.load_p1ulv1402_1 conn=wye bus1=p1ulv1402.1 kV=0.12 Vminpu=0.8 Vmaxpu=1.2 model=1 kW=2.1376631749204993 kvar=0.6218033466021168 Phases=1 yearly=res_kw_93_pu

New Load.load_p1ulv1402_2 conn=wye bus1=p1ulv1402.2 kV=0.12 Vminpu=0.8 Vmaxpu=1.2 model=1 kW=2.1376631749204993 kvar=0.6218033466021168 Phases=1 yearly=res_kw_93_pu

New Load.load_p1ulv1933 conn=wye bus1=p1ulv1933.1.2.3 kV=0.48 Vminpu=0.8 Vmaxpu=1.2 model=1 kW=163.06427227751666 kvar=8.09292321485166 Phases=3 yearly=com_kw_13079_pu

New Load.load_p1ulv1934 conn=wye bus1=p1ulv1933.1.2.3 kV=0.48 Vminpu=0.8 Vmaxpu=1.2 model=1 kW=84.95331826239885 kvar=12.896688503857957 Phases=3 yearly=com_kw_12885_pu

New Load.load_p1ulv1938_1 conn=wye bus1=p1ulv1938.1 kV=0.12 Vminpu=0.8 Vmaxpu=1.2 model=1 kW=2.0380250144225394 kvar=0.5847764991219453 Phases=1 yearly=com_kw_15124_pu

New Load.load_p1ulv1938_2 conn=wye bus1=p1ulv1938.2 kV=0.12 Vminpu=0.8 Vmaxpu=1.2 model=1 kW=2.0380250144225394 kvar=0.5847764991219453 Phases=1 yearly=com_kw_15124_pu

New Load.load_p1ulv1939_1 conn=wye bus1=p1ulv1939.1 kV=0.12 Vminpu=0.8 Vmaxpu=1.2 model=1 kW=2.0313586656693827 kvar=0.5942635047770736 Phases=1 yearly=com_kw_13386_pu

New Load.load_p1ulv1939_2 conn=wye bus1=p1ulv1939.2 kV=0.12 Vminpu=0.8 Vmaxpu=1.2 model=1 kW=2.0313586656693827 kvar=0.5942635047770736 Phases=1 yearly=com_kw_13386_pu

New Load.load_p1ulv1940_1 conn=wye bus1=p1ulv1938.1 kV=0.12 Vminpu=0.8 Vmaxpu=1.2 model=1 kW=4.941260915673429 kvar=0.2872704608510125 Phases=1 yearly=com_kw_15212_pu

New Load.load_p1ulv1940_2 conn=wye bus1=p1ulv1938.2 kV=0.12 Vminpu=0.8 Vmaxpu=1.2 model=1 kW=4.941260915673429 kvar=0.2872704608510125 Phases=1 yearly=com_kw_15212_pu

New Load.load_p1ulv1941_1 conn=wye bus1=p1ulv1941.1 kV=0.12 Vminpu=0.8 Vmaxpu=1.2 model=1 kW=1.8914832317680952 kvar=0.4701288429802831 Phases=1 yearly=com_kw_13018_pu

New Load.load_p1ulv1941_2 conn=wye bus1=p1ulv1941.2 kV=0.12 Vminpu=0.8 Vmaxpu=1.2 model=1 kW=1.8914832317680952 kvar=0.4701288429802831 Phases=1 yearly=com_kw_13018_pu

New Load.load_p1ulv1942_1 conn=wye bus1=p1ulv1941.1 kV=0.12 Vminpu=0.8 Vmaxpu=1.2 model=1 kW=5.326168943521982 kvar=0.2063776929599704 Phases=1 yearly=com_kw_14741_pu

New Load.load_p1ulv1942_2 conn=wye bus1=p1ulv1941.2 kV=0.12 Vminpu=0.8 Vmaxpu=1.2 model=1 kW=5.326168943521982 kvar=0.2063776929599704 Phases=1 yearly=com_kw_14741_pu

New Load.load_p1ulv1943_1 conn=wye bus1=p1ulv1943.1 kV=0.12 Vminpu=0.8 Vmaxpu=1.2 model=1 kW=4.317921618919005 kvar=0.17704568465273218 Phases=1 yearly=com_kw_12941_pu

New Load.load_p1ulv1943_2 conn=wye bus1=p1ulv1943.2 kV=0.12 Vminpu=0.8 Vmaxpu=1.2 model=1 kW=4.317921618919005 kvar=0.17704568465273218 Phases=1 yearly=com_kw_12941_pu

New Load.load_p1ulv1944_1 conn=wye bus1=p1ulv1944.1 kV=0.12 Vminpu=0.8 Vmaxpu=1.2 model=1 kW=1.8914832317680952 kvar=0.4701288429802831 Phases=1 yearly=com_kw_13018_pu

New Load.load_p1ulv1944_2 conn=wye bus1=p1ulv1944.2 kV=0.12 Vminpu=0.8 Vmaxpu=1.2 model=1 kW=1.8914832317680952 kvar=0.4701288429802831 Phases=1 yearly=com_kw_13018_pu

New Load.load_p1ulv1945_1 conn=wye bus1=p1ulv1945.1 kV=0.12 Vminpu=0.8 Vmaxpu=1.2 model=1 kW=2.1271986187473146 kvar=0.5751959086648131 Phases=1 yearly=com_kw_14402_pu

New Load.load_p1ulv1945_2 conn=wye bus1=p1ulv1945.2 kV=0.12 Vminpu=0.8 Vmaxpu=1.2 model=1 kW=2.1271986187473146 kvar=0.5751959086648131 Phases=1 yearly=com_kw_14402_pu

New Load.load_p1ulv1946_1 conn=wye bus1=p1ulv1946.1 kV=0.12 Vminpu=0.8 Vmaxpu=1.2 model=1 kW=1.2112005619473556 kvar=0.3318024399989204 Phases=1 yearly=res_kw_1194_pu

New Load.load_p1ulv1946_2 conn=wye bus1=p1ulv1946.2 kV=0.12 Vminpu=0.8 Vmaxpu=1.2 model=1 kW=1.2112005619473556 kvar=0.3318024399989204 Phases=1 yearly=res_kw_1194_pu

New Load.load_p1ulv4351 conn=wye bus1=p1ulv4351.1.2.3 kV=0.48 Vminpu=0.8 Vmaxpu=1.2 model=1 kW=90.84575360320908 kvar=22.30335579553028 Phases=3 yearly=com_kw_13363_pu

New Load.load_p1ulv4355_1 conn=wye bus1=p1ulv4355.1 kV=0.12 Vminpu=0.8 Vmaxpu=1.2 model=1 kW=2.4402285312138985 kvar=0.9342273883677934 Phases=1 yearly=res_kw_409_pu

New Load.load_p1ulv4355_2 conn=wye bus1=p1ulv4355.2 kV=0.12 Vminpu=0.8 Vmaxpu=1.2 model=1 kW=2.4402285312138985 kvar=0.9342273883677934 Phases=1 yearly=res_kw_409_pu

New Load.load_p1ulv4358_1 conn=wye bus1=p1ulv4358.1 kV=0.12 Vminpu=0.8 Vmaxpu=1.2 model=1 kW=6.727252203449795 kvar=1.9067277455995406 Phases=1 yearly=res_kw_822_pu

New Load.load_p1ulv4358_2 conn=wye bus1=p1ulv4358.2 kV=0.12 Vminpu=0.8 Vmaxpu=1.2 model=1 kW=6.727252203449795 kvar=1.9067277455995406 Phases=1 yearly=res_kw_822_pu

New Load.load_p1ulv4366_1 conn=wye bus1=p1ulv4366.1 kV=0.12 Vminpu=0.8 Vmaxpu=1.2 model=1 kW=3.8029744718879392 kvar=1.1462670306842289 Phases=1 yearly=res_kw_263_pu

New Load.load_p1ulv4366_2 conn=wye bus1=p1ulv4366.2 kV=0.12 Vminpu=0.8 Vmaxpu=1.2 model=1 kW=3.8029744718879392 kvar=1.1462670306842289 Phases=1 yearly=res_kw_263_pu

New Load.load_p1ulv4372 conn=wye bus1=p1ulv4372.1.2.3 kV=0.48 Vminpu=0.8 Vmaxpu=1.2 model=1 kW=96.98022607056483 kvar=4.112107653547226 Phases=3 yearly=com_kw_13501_pu

New Load.load_p1ulv4373_1 conn=wye bus1=p1ulv4373.1 kV=0.12 Vminpu=0.8 Vmaxpu=1.2 model=1 kW=6.224817813202313 kvar=1.7553010009693135 Phases=1 yearly=res_kw_710_pu

New Load.load_p1ulv4373_2 conn=wye bus1=p1ulv4373.2 kV=0.12 Vminpu=0.8 Vmaxpu=1.2 model=1 kW=6.224817813202313 kvar=1.7553010009693135 Phases=1 yearly=res_kw_710_pu

New Load.load_p1ulv4749 conn=wye bus1=p1ulv4749.1.2.3 kV=0.48 Vminpu=0.8 Vmaxpu=1.2 model=1 kW=24.316113830867014 kvar=0.44260875856228404 Phases=3 yearly=res_kw_809_pu

New Load.load_p1ulv11234_1 conn=wye bus1=p1ulv11234.1 kV=0.12 Vminpu=0.8 Vmaxpu=1.2 model=1 kW=5.991917116566147 kvar=1.6692124001399427 Phases=1 yearly=res_kw_314_pu

New Load.load_p1ulv11234_2 conn=wye bus1=p1ulv11234.2 kV=0.12 Vminpu=0.8 Vmaxpu=1.2 model=1 kW=5.991917116566147 kvar=1.6692124001399427 Phases=1 yearly=res_kw_314_pu

New Load.load_p1ulv11236_1 conn=wye bus1=p1ulv11236.1 kV=0.12 Vminpu=0.8 Vmaxpu=1.2 model=1 kW=6.782523491229934 kvar=1.0594739670560112 Phases=1 yearly=res_kw_564_pu

New Load.load_p1ulv11236_2 conn=wye bus1=p1ulv11236.2 kV=0.12 Vminpu=0.8 Vmaxpu=1.2 model=1 kW=6.782523491229934 kvar=1.0594739670560112 Phases=1 yearly=res_kw_564_pu

New Load.load_p1ulv11237_1 conn=wye bus1=p1ulv11237.1 kV=0.12 Vminpu=0.8 Vmaxpu=1.2 model=1 kW=9.666699253995569 kvar=2.090221480167897 Phases=1 yearly=res_kw_46_pu

New Load.load_p1ulv11237_2 conn=wye bus1=p1ulv11237.2 kV=0.12 Vminpu=0.8 Vmaxpu=1.2 model=1 kW=9.666699253995569 kvar=2.090221480167897 Phases=1 yearly=res_kw_46_pu

New Load.load_p1ulv11238_1 conn=wye bus1=p1ulv11238.1 kV=0.12 Vminpu=0.8 Vmaxpu=1.2 model=1 kW=5.991917116566147 kvar=1.6692124001399427 Phases=1 yearly=res_kw_314_pu

New Load.load_p1ulv11238_2 conn=wye bus1=p1ulv11238.2 kV=0.12 Vminpu=0.8 Vmaxpu=1.2 model=1 kW=5.991917116566147 kvar=1.6692124001399427 Phases=1 yearly=res_kw_314_pu

New Load.load_p1ulv11240_1 conn=wye bus1=p1ulv11240.1 kV=0.12 Vminpu=0.8 Vmaxpu=1.2 model=1 kW=4.78815623948431 kvar=1.2110296754961107 Phases=1 yearly=res_kw_842_pu

New Load.load_p1ulv11240_2 conn=wye bus1=p1ulv11240.2 kV=0.12 Vminpu=0.8 Vmaxpu=1.2 model=1 kW=4.78815623948431 kvar=1.2110296754961107 Phases=1 yearly=res_kw_842_pu

New Load.load_p1ulv11243_1 conn=wye bus1=p1ulv11243.1 kV=0.12 Vminpu=0.8 Vmaxpu=1.2 model=1 kW=3.789884331965197 kvar=1.0036576715582408 Phases=1 yearly=res_kw_670_pu

New Load.load_p1ulv11243_2 conn=wye bus1=p1ulv11243.2 kV=0.12 Vminpu=0.8 Vmaxpu=1.2 model=1 kW=3.789884331965197 kvar=1.0036576715582408 Phases=1 yearly=res_kw_670_pu

New Load.load_p1ulv11244_1 conn=wye bus1=p1ulv11244.1 kV=0.12 Vminpu=0.8 Vmaxpu=1.2 model=1 kW=6.121843752393233 kvar=1.8222876779408097 Phases=1 yearly=res_kw_1153_pu

New Load.load_p1ulv11244_2 conn=wye bus1=p1ulv11244.2 kV=0.12 Vminpu=0.8 Vmaxpu=1.2 model=1 kW=6.121843752393233 kvar=1.8222876779408097 Phases=1 yearly=res_kw_1153_pu

New Load.load_p1ulv11245_1 conn=wye bus1=p1ulv11245.1 kV=0.12 Vminpu=0.8 Vmaxpu=1.2 model=1 kW=2.6241521841182514 kvar=0.8429304779950015 Phases=1 yearly=res_kw_33_pu

New Load.load_p1ulv11245_2 conn=wye bus1=p1ulv11245.2 kV=0.12 Vminpu=0.8 Vmaxpu=1.2 model=1 kW=2.6241521841182514 kvar=0.8429304779950015 Phases=1 yearly=res_kw_33_pu

New Load.load_p1ulv11246_1 conn=wye bus1=p1ulv11246.1 kV=0.12 Vminpu=0.8 Vmaxpu=1.2 model=1 kW=3.469755020859998 kvar=0.8941520384931253 Phases=1 yearly=res_kw_4_pu

New Load.load_p1ulv11246_2 conn=wye bus1=p1ulv11246.2 kV=0.12 Vminpu=0.8 Vmaxpu=1.2 model=1 kW=3.469755020859998 kvar=0.8941520384931253 Phases=1 yearly=res_kw_4_pu

New Load.load_p1ulv11247_1 conn=wye bus1=p1ulv11247.1 kV=0.12 Vminpu=0.8 Vmaxpu=1.2 model=1 kW=2.6241521841182514 kvar=0.8429304779950015 Phases=1 yearly=res_kw_33_pu

New Load.load_p1ulv11247_2 conn=wye bus1=p1ulv11247.2 kV=0.12 Vminpu=0.8 Vmaxpu=1.2 model=1 kW=2.6241521841182514 kvar=0.8429304779950015 Phases=1 yearly=res_kw_33_pu

New Load.load_p1ulv11248_1 conn=wye bus1=p1ulv11248.1 kV=0.12 Vminpu=0.8 Vmaxpu=1.2 model=1 kW=7.7578735794910925 kvar=1.9049941012910125 Phases=1 yearly=res_kw_863_pu

New Load.load_p1ulv11248_2 conn=wye bus1=p1ulv11248.2 kV=0.12 Vminpu=0.8 Vmaxpu=1.2 model=1 kW=7.7578735794910925 kvar=1.9049941012910125 Phases=1 yearly=res_kw_863_pu

New Load.load_p1ulv11261_1 conn=wye bus1=p1ulv11261.1 kV=0.12 Vminpu=0.8 Vmaxpu=1.2 model=1 kW=6.2419949477893475 kvar=3.2518916743102033 Phases=1 yearly=res_kw_748_pu

New Load.load_p1ulv11261_2 conn=wye bus1=p1ulv11261.2 kV=0.12 Vminpu=0.8 Vmaxpu=1.2 model=1 kW=6.2419949477893475 kvar=3.2518916743102033 Phases=1 yearly=res_kw_748_pu

New Load.load_p1ulv11262_1 conn=wye bus1=p1ulv11262.1 kV=0.12 Vminpu=0.8 Vmaxpu=1.2 model=1 kW=6.702223593657906 kvar=1.4906391030592414 Phases=1 yearly=res_kw_199_pu

New Load.load_p1ulv11262_2 conn=wye bus1=p1ulv11262.2 kV=0.12 Vminpu=0.8 Vmaxpu=1.2 model=1 kW=6.702223593657906 kvar=1.4906391030592414 Phases=1 yearly=res_kw_199_pu

New Load.load_p1ulv11263_1 conn=wye bus1=p1ulv11263.1 kV=0.12 Vminpu=0.8 Vmaxpu=1.2 model=1 kW=2.40000228705824 kvar=1.0173787262529668 Phases=1 yearly=res_kw_1205_pu

New Load.load_p1ulv11263_2 conn=wye bus1=p1ulv11263.2 kV=0.12 Vminpu=0.8 Vmaxpu=1.2 model=1 kW=2.40000228705824 kvar=1.0173787262529668 Phases=1 yearly=res_kw_1205_pu

New Load.load_p1ulv11264_1 conn=wye bus1=p1ulv11264.1 kV=0.12 Vminpu=0.8 Vmaxpu=1.2 model=1 kW=3.7358442183619687 kvar=0.8837352156355889 Phases=1 yearly=res_kw_522_pu

New Load.load_p1ulv11264_2 conn=wye bus1=p1ulv11264.2 kV=0.12 Vminpu=0.8 Vmaxpu=1.2 model=1 kW=3.7358442183619687 kvar=0.8837352156355889 Phases=1 yearly=res_kw_522_pu

New Load.load_p1ulv11265_1 conn=wye bus1=p1ulv11265.1 kV=0.12 Vminpu=0.8 Vmaxpu=1.2 model=1 kW=4.198936522204728 kvar=0.9501139000968819 Phases=1 yearly=res_kw_229_pu

New Load.load_p1ulv11265_2 conn=wye bus1=p1ulv11265.2 kV=0.12 Vminpu=0.8 Vmaxpu=1.2 model=1 kW=4.198936522204728 kvar=0.9501139000968819 Phases=1 yearly=res_kw_229_pu

New Load.load_p1ulv11266_1 conn=wye bus1=p1ulv11266.1 kV=0.12 Vminpu=0.8 Vmaxpu=1.2 model=1 kW=6.781528157055726 kvar=1.3939212369369844 Phases=1 yearly=res_kw_548_pu

New Load.load_p1ulv11266_2 conn=wye bus1=p1ulv11266.2 kV=0.12 Vminpu=0.8 Vmaxpu=1.2 model=1 kW=6.781528157055726 kvar=1.3939212369369844 Phases=1 yearly=res_kw_548_pu

New Load.load_p1ulv11267_1 conn=wye bus1=p1ulv11267.1 kV=0.12 Vminpu=0.8 Vmaxpu=1.2 model=1 kW=6.520159505202592 kvar=1.1378587223610979 Phases=1 yearly=res_kw_879_pu

New Load.load_p1ulv11267_2 conn=wye bus1=p1ulv11267.2 kV=0.12 Vminpu=0.8 Vmaxpu=1.2 model=1 kW=6.520159505202592 kvar=1.1378587223610979 Phases=1 yearly=res_kw_879_pu

New Load.load_p1ulv11268_1 conn=wye bus1=p1ulv11268.1 kV=0.12 Vminpu=0.8 Vmaxpu=1.2 model=1 kW=6.727252203449795 kvar=1.9067277455995406 Phases=1 yearly=res_kw_822_pu

New Load.load_p1ulv11268_2 conn=wye bus1=p1ulv11268.2 kV=0.12 Vminpu=0.8 Vmaxpu=1.2 model=1 kW=6.727252203449795 kvar=1.9067277455995406 Phases=1 yearly=res_kw_822_pu

New Load.load_p1ulv11269_1 conn=wye bus1=p1ulv11269.1 kV=0.12 Vminpu=0.8 Vmaxpu=1.2 model=1 kW=3.6844020253442458 kvar=1.4451491397155931 Phases=1 yearly=res_kw_1258_pu

New Load.load_p1ulv11269_2 conn=wye bus1=p1ulv11269.2 kV=0.12 Vminpu=0.8 Vmaxpu=1.2 model=1 kW=3.6844020253442458 kvar=1.4451491397155931 Phases=1 yearly=res_kw_1258_pu

New Load.load_p1ulv11270_1 conn=wye bus1=p1ulv11270.1 kV=0.12 Vminpu=0.8 Vmaxpu=1.2 model=1 kW=10.375628907780863 kvar=4.616486224330442 Phases=1 yearly=res_kw_1267_pu

New Load.load_p1ulv11270_2 conn=wye bus1=p1ulv11270.2 kV=0.12 Vminpu=0.8 Vmaxpu=1.2 model=1 kW=10.375628907780863 kvar=4.616486224330442 Phases=1 yearly=res_kw_1267_pu

New Load.load_p1ulv11829_1 conn=wye bus1=p1ulv11829.1 kV=0.12 Vminpu=0.8 Vmaxpu=1.2 model=1 kW=5.1496269559453545 kvar=1.5323145223091108 Phases=1 yearly=com_kw_14231_pu

New Load.load_p1ulv11829_2 conn=wye bus1=p1ulv11829.2 kV=0.12 Vminpu=0.8 Vmaxpu=1.2 model=1 kW=5.1496269559453545 kvar=1.5323145223091108 Phases=1 yearly=com_kw_14231_pu

New Load.load_p1ulv11830_1 conn=wye bus1=p1ulv11830.1 kV=0.12 Vminpu=0.8 Vmaxpu=1.2 model=1 kW=8.061369687230792 kvar=2.046743062843267 Phases=1 yearly=com_kw_13468_pu

New Load.load_p1ulv11830_2 conn=wye bus1=p1ulv11830.2 kV=0.12 Vminpu=0.8 Vmaxpu=1.2 model=1 kW=8.061369687230792 kvar=2.046743062843267 Phases=1 yearly=com_kw_13468_pu

New Load.load_p1ulv19247_1 conn=wye bus1=p1ulv19247.1 kV=0.12 Vminpu=0.8 Vmaxpu=1.2 model=1 kW=9.358521499301396 kvar=0.9436008203397507 Phases=1 yearly=com_kw_12824_pu

New Load.load_p1ulv19247_2 conn=wye bus1=p1ulv19247.2 kV=0.12 Vminpu=0.8 Vmaxpu=1.2 model=1 kW=9.358521499301396 kvar=0.9436008203397507 Phases=1 yearly=com_kw_12824_pu

New Load.load_p1ulv19248_1 conn=wye bus1=p1ulv19248.1 kV=0.12 Vminpu=0.8 Vmaxpu=1.2 model=1 kW=9.358521499301396 kvar=0.9436008203397507 Phases=1 yearly=com_kw_12824_pu

New Load.load_p1ulv19248_2 conn=wye bus1=p1ulv19248.2 kV=0.12 Vminpu=0.8 Vmaxpu=1.2 model=1 kW=9.358521499301396 kvar=0.9436008203397507 Phases=1 yearly=com_kw_12824_pu

New Load.load_p1ulv19249_1 conn=wye bus1=p1ulv19249.1 kV=0.12 Vminpu=0.8 Vmaxpu=1.2 model=1 kW=3.469755020859998 kvar=0.8941520384931253 Phases=1 yearly=res_kw_4_pu

New Load.load_p1ulv19249_2 conn=wye bus1=p1ulv19249.2 kV=0.12 Vminpu=0.8 Vmaxpu=1.2 model=1 kW=3.469755020859998 kvar=0.8941520384931253 Phases=1 yearly=res_kw_4_pu

New Load.load_p1ulv19250_1 conn=wye bus1=p1ulv19250.1 kV=0.12 Vminpu=0.8 Vmaxpu=1.2 model=1 kW=3.185677527023716 kvar=0.7066929516502537 Phases=1 yearly=com_kw_13750_pu

New Load.load_p1ulv19250_2 conn=wye bus1=p1ulv19250.2 kV=0.12 Vminpu=0.8 Vmaxpu=1.2 model=1 kW=3.185677527023716 kvar=0.7066929516502537 Phases=1 yearly=com_kw_13750_pu

New Load.load_p1ulv19251_1 conn=wye bus1=p1ulv19251.1 kV=0.12 Vminpu=0.8 Vmaxpu=1.2 model=1 kW=9.358521499301396 kvar=0.9436008203397507 Phases=1 yearly=com_kw_12824_pu

New Load.load_p1ulv19251_2 conn=wye bus1=p1ulv19251.2 kV=0.12 Vminpu=0.8 Vmaxpu=1.2 model=1 kW=9.358521499301396 kvar=0.9436008203397507 Phases=1 yearly=com_kw_12824_pu

New Load.load_p1ulv19252_1 conn=wye bus1=p1ulv19252.1 kV=0.12 Vminpu=0.8 Vmaxpu=1.2 model=1 kW=19.63124272075125 kvar=0.6888461061237222 Phases=1 yearly=com_kw_14520_pu

New Load.load_p1ulv19252_2 conn=wye bus1=p1ulv19252.2 kV=0.12 Vminpu=0.8 Vmaxpu=1.2 model=1 kW=19.63124272075125 kvar=0.6888461061237222 Phases=1 yearly=com_kw_14520_pu

New Load.load_p1ulv19253_1 conn=wye bus1=p1ulv19252.1 kV=0.12 Vminpu=0.8 Vmaxpu=1.2 model=1 kW=15.752198264754231 kvar=0.5766775502462211 Phases=1 yearly=com_kw_14219_pu

New Load.load_p1ulv19253_2 conn=wye bus1=p1ulv19252.2 kV=0.12 Vminpu=0.8 Vmaxpu=1.2 model=1 kW=15.752198264754231 kvar=0.5766775502462211 Phases=1 yearly=com_kw_14219_pu

New Load.load_p1ulv22879_1 conn=wye bus1=p1ulv22879.1 kV=0.12 Vminpu=0.8 Vmaxpu=1.2 model=1 kW=4.081735511976485 kvar=0.9882394625849078 Phases=1 yearly=com_kw_14650_pu

New Load.load_p1ulv22879_2 conn=wye bus1=p1ulv22879.2 kV=0.12 Vminpu=0.8 Vmaxpu=1.2 model=1 kW=4.081735511976485 kvar=0.9882394625849078 Phases=1 yearly=com_kw_14650_pu

New Load.load_p1ulv22887_1 conn=wye bus1=p1ulv22887.1 kV=0.12 Vminpu=0.8 Vmaxpu=1.2 model=1 kW=8.467023921232082 kvar=1.428888419380381 Phases=1 yearly=com_kw_12896_pu

New Load.load_p1ulv22887_2 conn=wye bus1=p1ulv22887.2 kV=0.12 Vminpu=0.8 Vmaxpu=1.2 model=1 kW=8.467023921232082 kvar=1.428888419380381 Phases=1 yearly=com_kw_12896_pu

New Load.load_p1ulv22895_1 conn=wye bus1=p1ulv22895.1 kV=0.12 Vminpu=0.8 Vmaxpu=1.2 model=1 kW=4.792624300749482 kvar=1.1139407265067676 Phases=1 yearly=res_kw_898_pu

New Load.load_p1ulv22895_2 conn=wye bus1=p1ulv22895.2 kV=0.12 Vminpu=0.8 Vmaxpu=1.2 model=1 kW=4.792624300749482 kvar=1.1139407265067676 Phases=1 yearly=res_kw_898_pu

New Load.load_p1ulv22897_1 conn=wye bus1=p1ulv22897.1 kV=0.12 Vminpu=0.8 Vmaxpu=1.2 model=1 kW=4.7808294278431465 kvar=0.6499483324233782 Phases=1 yearly=res_kw_416_pu

New Load.load_p1ulv22897_2 conn=wye bus1=p1ulv22897.2 kV=0.12 Vminpu=0.8 Vmaxpu=1.2 model=1 kW=4.7808294278431465 kvar=0.6499483324233782 Phases=1 yearly=res_kw_416_pu

New Load.load_p1ulv22904_1 conn=wye bus1=p1ulv22895.1 kV=0.12 Vminpu=0.8 Vmaxpu=1.2 model=1 kW=2.40000228705824 kvar=1.0173787262529668 Phases=1 yearly=res_kw_1205_pu

New Load.load_p1ulv22904_2 conn=wye bus1=p1ulv22895.2 kV=0.12 Vminpu=0.8 Vmaxpu=1.2 model=1 kW=2.40000228705824 kvar=1.0173787262529668 Phases=1 yearly=res_kw_1205_pu

New Load.load_p1ulv22906_1 conn=wye bus1=p1ulv22906.1 kV=0.12 Vminpu=0.8 Vmaxpu=1.2 model=1 kW=2.40000228705824 kvar=1.0173787262529668 Phases=1 yearly=res_kw_1205_pu

New Load.load_p1ulv22906_2 conn=wye bus1=p1ulv22906.2 kV=0.12 Vminpu=0.8 Vmaxpu=1.2 model=1 kW=2.40000228705824 kvar=1.0173787262529668 Phases=1 yearly=res_kw_1205_pu

New Load.load_p1ulv22907_1 conn=wye bus1=p1ulv22907.1 kV=0.12 Vminpu=0.8 Vmaxpu=1.2 model=1 kW=4.78815623948431 kvar=1.2110296754961107 Phases=1 yearly=res_kw_842_pu

New Load.load_p1ulv22907_2 conn=wye bus1=p1ulv22907.2 kV=0.12 Vminpu=0.8 Vmaxpu=1.2 model=1 kW=4.78815623948431 kvar=1.2110296754961107 Phases=1 yearly=res_kw_842_pu

New Load.load_p1ulv22908_1 conn=wye bus1=p1ulv22908.1 kV=0.12 Vminpu=0.8 Vmaxpu=1.2 model=1 kW=4.081735511976485 kvar=0.9882394625849078 Phases=1 yearly=com_kw_14650_pu

New Load.load_p1ulv22908_2 conn=wye bus1=p1ulv22908.2 kV=0.12 Vminpu=0.8 Vmaxpu=1.2 model=1 kW=4.081735511976485 kvar=0.9882394625849078 Phases=1 yearly=com_kw_14650_pu

New Load.load_p1ulv22909_1 conn=wye bus1=p1ulv22909.1 kV=0.12 Vminpu=0.8 Vmaxpu=1.2 model=1 kW=7.259772519581312 kvar=1.3210086815250959 Phases=1 yearly=res_kw_128_pu

New Load.load_p1ulv22909_2 conn=wye bus1=p1ulv22909.2 kV=0.12 Vminpu=0.8 Vmaxpu=1.2 model=1 kW=7.259772519581312 kvar=1.3210086815250959 Phases=1 yearly=res_kw_128_pu

New Load.load_p1ulv22910_1 conn=wye bus1=p1ulv22909.1 kV=0.12 Vminpu=0.8 Vmaxpu=1.2 model=1 kW=3.789884331965197 kvar=1.0036576715582408 Phases=1 yearly=res_kw_670_pu

New Load.load_p1ulv22910_2 conn=wye bus1=p1ulv22909.2 kV=0.12 Vminpu=0.8 Vmaxpu=1.2 model=1 kW=3.789884331965197 kvar=1.0036576715582408 Phases=1 yearly=res_kw_670_pu

New Load.load_p1ulv22911_1 conn=wye bus1=p1ulv22911.1 kV=0.12 Vminpu=0.8 Vmaxpu=1.2 model=1 kW=6.727252203449795 kvar=1.9067277455995406 Phases=1 yearly=res_kw_822_pu

New Load.load_p1ulv22911_2 conn=wye bus1=p1ulv22911.2 kV=0.12 Vminpu=0.8 Vmaxpu=1.2 model=1 kW=6.727252203449795 kvar=1.9067277455995406 Phases=1 yearly=res_kw_822_pu

New Load.load_p1ulv22912_1 conn=wye bus1=p1ulv22912.1 kV=0.12 Vminpu=0.8 Vmaxpu=1.2 model=1 kW=5.6593015111322105 kvar=1.2761251920573724 Phases=1 yearly=res_kw_324_pu

New Load.load_p1ulv22912_2 conn=wye bus1=p1ulv22912.2 kV=0.12 Vminpu=0.8 Vmaxpu=1.2 model=1 kW=5.6593015111322105 kvar=1.2761251920573724 Phases=1 yearly=res_kw_324_pu

New Load.load_p1ulv22913_1 conn=wye bus1=p1ulv22913.1 kV=0.12 Vminpu=0.8 Vmaxpu=1.2 model=1 kW=6.727252203449795 kvar=1.9067277455995406 Phases=1 yearly=res_kw_822_pu

New Load.load_p1ulv22913_2 conn=wye bus1=p1ulv22913.2 kV=0.12 Vminpu=0.8 Vmaxpu=1.2 model=1 kW=6.727252203449795 kvar=1.9067277455995406 Phases=1 yearly=res_kw_822_pu

New Load.load_p1ulv22914_1 conn=wye bus1=p1ulv22914.1 kV=0.12 Vminpu=0.8 Vmaxpu=1.2 model=1 kW=2.40000228705824 kvar=1.0173787262529668 Phases=1 yearly=res_kw_1205_pu

New Load.load_p1ulv22914_2 conn=wye bus1=p1ulv22914.2 kV=0.12 Vminpu=0.8 Vmaxpu=1.2 model=1 kW=2.40000228705824 kvar=1.0173787262529668 Phases=1 yearly=res_kw_1205_pu

New Load.load_p1ulv22915_1 conn=wye bus1=p1ulv22915.1 kV=0.12 Vminpu=0.8 Vmaxpu=1.2 model=1 kW=3.8748715750127736 kvar=1.5614372175332516 Phases=1 yearly=res_kw_517_pu

New Load.load_p1ulv22915_2 conn=wye bus1=p1ulv22915.2 kV=0.12 Vminpu=0.8 Vmaxpu=1.2 model=1 kW=3.8748715750127736 kvar=1.5614372175332516 Phases=1 yearly=res_kw_517_pu

New Load.load_p1ulv22916_1 conn=wye bus1=p1ulv22916.1 kV=0.12 Vminpu=0.8 Vmaxpu=1.2 model=1 kW=3.6844020253442458 kvar=1.4451491397155931 Phases=1 yearly=res_kw_1258_pu

New Load.load_p1ulv22916_2 conn=wye bus1=p1ulv22916.2 kV=0.12 Vminpu=0.8 Vmaxpu=1.2 model=1 kW=3.6844020253442458 kvar=1.4451491397155931 Phases=1 yearly=res_kw_1258_pu

New Load.load_p1ulv22917_1 conn=wye bus1=p1ulv22917.1 kV=0.12 Vminpu=0.8 Vmaxpu=1.2 model=1 kW=3.4468581914223817 kvar=1.1411197390818253 Phases=1 yearly=res_kw_250_pu

New Load.load_p1ulv22917_2 conn=wye bus1=p1ulv22917.2 kV=0.12 Vminpu=0.8 Vmaxpu=1.2 model=1 kW=3.4468581914223817 kvar=1.1411197390818253 Phases=1 yearly=res_kw_250_pu

New Load.load_p1ulv22918_1 conn=wye bus1=p1ulv22918.1 kV=0.12 Vminpu=0.8 Vmaxpu=1.2 model=1 kW=2.916803644387601 kvar=0.11499518252231355 Phases=1 yearly=res_kw_1094_pu

New Load.load_p1ulv22918_2 conn=wye bus1=p1ulv22918.2 kV=0.12 Vminpu=0.8 Vmaxpu=1.2 model=1 kW=2.916803644387601 kvar=0.11499518252231355 Phases=1 yearly=res_kw_1094_pu

New Load.load_p1ulv22919_1 conn=wye bus1=p1ulv22919.1 kV=0.12 Vminpu=0.8 Vmaxpu=1.2 model=1 kW=10.375628907780863 kvar=4.616486224330442 Phases=1 yearly=res_kw_1267_pu

New Load.load_p1ulv22919_2 conn=wye bus1=p1ulv22919.2 kV=0.12 Vminpu=0.8 Vmaxpu=1.2 model=1 kW=10.375628907780863 kvar=4.616486224330442 Phases=1 yearly=res_kw_1267_pu

New Load.load_p1ulv22920 conn=wye bus1=p1ulv22920.1.2.3 kV=0.48 Vminpu=0.8 Vmaxpu=1.2 model=1 kW=58.450508040175656 kvar=14.43696769609205 Phases=3 yearly=res_kw_418_pu

New Load.load_p1ulv22923_1 conn=wye bus1=p1ulv22923.1 kV=0.12 Vminpu=0.8 Vmaxpu=1.2 model=1 kW=4.78815623948431 kvar=1.2110296754961107 Phases=1 yearly=res_kw_842_pu

New Load.load_p1ulv22923_2 conn=wye bus1=p1ulv22923.2 kV=0.12 Vminpu=0.8 Vmaxpu=1.2 model=1 kW=4.78815623948431 kvar=1.2110296754961107 Phases=1 yearly=res_kw_842_pu

New Load.load_p1ulv22926_1 conn=wye bus1=p1ulv22926.1 kV=0.12 Vminpu=0.8 Vmaxpu=1.2 model=1 kW=4.78815623948431 kvar=1.2110296754961107 Phases=1 yearly=res_kw_842_pu

New Load.load_p1ulv22926_2 conn=wye bus1=p1ulv22926.2 kV=0.12 Vminpu=0.8 Vmaxpu=1.2 model=1 kW=4.78815623948431 kvar=1.2110296754961107 Phases=1 yearly=res_kw_842_pu

New Load.load_p1ulv22928_1 conn=wye bus1=p1ulv22928.1 kV=0.12 Vminpu=0.8 Vmaxpu=1.2 model=1 kW=3.8748715750127736 kvar=1.5614372175332516 Phases=1 yearly=res_kw_517_pu

New Load.load_p1ulv22928_2 conn=wye bus1=p1ulv22928.2 kV=0.12 Vminpu=0.8 Vmaxpu=1.2 model=1 kW=3.8748715750127736 kvar=1.5614372175332516 Phases=1 yearly=res_kw_517_pu

New Load.load_p1ulv22929_1 conn=wye bus1=p1ulv22929.1 kV=0.12 Vminpu=0.8 Vmaxpu=1.2 model=1 kW=1.8636614682402992 kvar=0.5015179682387616 Phases=1 yearly=res_kw_532_pu

New Load.load_p1ulv22929_2 conn=wye bus1=p1ulv22929.2 kV=0.12 Vminpu=0.8 Vmaxpu=1.2 model=1 kW=1.8636614682402992 kvar=0.5015179682387616 Phases=1 yearly=res_kw_532_pu

New Load.load_p1ulv22930 conn=wye bus1=p1ulv22930.1.2.3 kV=0.48 Vminpu=0.8 Vmaxpu=1.2 model=1 kW=58.5584510878998 kvar=7.3197203708758405 Phases=3 yearly=res_kw_860_pu

New Load.load_p1ulv22931_1 conn=wye bus1=p1ulv22929.1 kV=0.12 Vminpu=0.8 Vmaxpu=1.2 model=1 kW=2.6241521841182514 kvar=0.8429304779950015 Phases=1 yearly=res_kw_33_pu

New Load.load_p1ulv22931_2 conn=wye bus1=p1ulv22929.2 kV=0.12 Vminpu=0.8 Vmaxpu=1.2 model=1 kW=2.6241521841182514 kvar=0.8429304779950015 Phases=1 yearly=res_kw_33_pu

New Load.load_p1ulv22932_1 conn=wye bus1=p1ulv22932.1 kV=0.12 Vminpu=0.8 Vmaxpu=1.2 model=1 kW=3.4468581914223817 kvar=1.1411197390818253 Phases=1 yearly=res_kw_250_pu

New Load.load_p1ulv22932_2 conn=wye bus1=p1ulv22932.2 kV=0.12 Vminpu=0.8 Vmaxpu=1.2 model=1 kW=3.4468581914223817 kvar=1.1411197390818253 Phases=1 yearly=res_kw_250_pu

New Load.load_p1ulv22933_1 conn=wye bus1=p1ulv22933.1 kV=0.12 Vminpu=0.8 Vmaxpu=1.2 model=1 kW=4.746269311492783 kvar=1.3210751032938461 Phases=1 yearly=res_kw_1080_pu

New Load.load_p1ulv22933_2 conn=wye bus1=p1ulv22933.2 kV=0.12 Vminpu=0.8 Vmaxpu=1.2 model=1 kW=4.746269311492783 kvar=1.3210751032938461 Phases=1 yearly=res_kw_1080_pu

New Load.load_p1ulv22935_1 conn=wye bus1=p1ulv22935.1 kV=0.12 Vminpu=0.8 Vmaxpu=1.2 model=1 kW=6.817994061838357 kvar=0.9100697715919355 Phases=1 yearly=res_kw_1099_pu

New Load.load_p1ulv22935_2 conn=wye bus1=p1ulv22935.2 kV=0.12 Vminpu=0.8 Vmaxpu=1.2 model=1 kW=6.817994061838357 kvar=0.9100697715919355 Phases=1 yearly=res_kw_1099_pu

New Load.load_p1ulv22937 conn=wye bus1=p1ulv22937.1.2.3 kV=0.48 Vminpu=0.8 Vmaxpu=1.2 model=1 kW=79.01615025011174 kvar=10.801856546348901 Phases=3 yearly=res_kw_140_pu

New Load.load_p1ulv22938 conn=wye bus1=p1ulv22938.1.2.3 kV=0.48 Vminpu=0.8 Vmaxpu=1.2 model=1 kW=27.61476157041208 kvar=2.053452334937639 Phases=3 yearly=res_kw_1089_pu

New Load.load_p1ulv22941_1 conn=wye bus1=p1ulv22941.1 kV=0.12 Vminpu=0.8 Vmaxpu=1.2 model=1 kW=3.469521951913567 kvar=0.9490620687569232 Phases=1 yearly=res_kw_825_pu

New Load.load_p1ulv22941_2 conn=wye bus1=p1ulv22941.2 kV=0.12 Vminpu=0.8 Vmaxpu=1.2 model=1 kW=3.469521951913567 kvar=0.9490620687569232 Phases=1 yearly=res_kw_825_pu

New Load.load_p1ulv22942_1 conn=wye bus1=p1ulv22942.1 kV=0.12 Vminpu=0.8 Vmaxpu=1.2 model=1 kW=8.945277872082505 kvar=0.7656229248796237 Phases=1 yearly=com_kw_15010_pu

New Load.load_p1ulv22942_2 conn=wye bus1=p1ulv22942.2 kV=0.12 Vminpu=0.8 Vmaxpu=1.2 model=1 kW=8.945277872082505 kvar=0.7656229248796237 Phases=1 yearly=com_kw_15010_pu

New Load.load_p1ulv22944_1 conn=wye bus1=p1ulv22944.1 kV=0.12 Vminpu=0.8 Vmaxpu=1.2 model=1 kW=6.520159505202592 kvar=1.1378587223610979 Phases=1 yearly=res_kw_879_pu

New Load.load_p1ulv22944_2 conn=wye bus1=p1ulv22944.2 kV=0.12 Vminpu=0.8 Vmaxpu=1.2 model=1 kW=6.520159505202592 kvar=1.1378587223610979 Phases=1 yearly=res_kw_879_pu

New Load.load_p1ulv22945_1 conn=wye bus1=p1ulv22945.1 kV=0.12 Vminpu=0.8 Vmaxpu=1.2 model=1 kW=10.375628907780863 kvar=4.616486224330442 Phases=1 yearly=res_kw_1267_pu

New Load.load_p1ulv22945_2 conn=wye bus1=p1ulv22945.2 kV=0.12 Vminpu=0.8 Vmaxpu=1.2 model=1 kW=10.375628907780863 kvar=4.616486224330442 Phases=1 yearly=res_kw_1267_pu

New Load.load_p1ulv26006 conn=wye bus1=p1ulv26006.1.2.3 kV=0.48 Vminpu=0.8 Vmaxpu=1.2 model=1 kW=33.06222000108874 kvar=9.677382493531738 Phases=3 yearly=com_kw_13382_pu

New Load.load_p1ulv26073_1 conn=wye bus1=p1ulv26073.1 kV=0.12 Vminpu=0.8 Vmaxpu=1.2 model=1 kW=5.436729579526792 kvar=1.2488470964899614 Phases=1 yearly=res_kw_454_pu

New Load.load_p1ulv26073_2 conn=wye bus1=p1ulv26073.2 kV=0.12 Vminpu=0.8 Vmaxpu=1.2 model=1 kW=5.436729579526792 kvar=1.2488470964899614 Phases=1 yearly=res_kw_454_pu

New Load.load_p1ulv26235_1 conn=wye bus1=p1ulv26235.1 kV=0.12 Vminpu=0.8 Vmaxpu=1.2 model=1 kW=6.702223593657906 kvar=1.4906391030592414 Phases=1 yearly=res_kw_199_pu

New Load.load_p1ulv26235_2 conn=wye bus1=p1ulv26235.2 kV=0.12 Vminpu=0.8 Vmaxpu=1.2 model=1 kW=6.702223593657906 kvar=1.4906391030592414 Phases=1 yearly=res_kw_199_pu

New Load.load_p1ulv26296 conn=wye bus1=p1ulv26296.1.2.3 kV=0.48 Vminpu=0.8 Vmaxpu=1.2 model=1 kW=31.79729615636958 kvar=7.2191546828095525 Phases=3 yearly=com_kw_13513_pu

New Load.load_p1ulv26446_1 conn=wye bus1=p1ulv26446.1 kV=0.12 Vminpu=0.8 Vmaxpu=1.2 model=1 kW=2.40000228705824 kvar=1.0173787262529668 Phases=1 yearly=res_kw_1205_pu
