New Load.load_p1ulv208_1 conn=wye bus1=p1ulv208.1 kV=0.12 Vminpu=0.8 Vmaxpu=1.2 model=1 kW=3.8748715750127736 kvar=1.5614372175332516 Phases=1 yearly=res_kw_517_pu

New Load.load_p1ulv208_2 conn=wye bus1=p1ulv208.2 kV=0.12 Vminpu=0.8 Vmaxpu=1.2 model=1 kW=3.8748715750127736 kvar=1.5614372175332516 Phases=1 yearly=res_kw_517_pu

New Load.load_p1ulv210_1 conn=wye bus1=p1ulv210.1 kV=0.12 Vminpu=0.8 Vmaxpu=1.2 model=1 kW=5.947053638705014 kvar=1.2332751328813323 Phases=1 yearly=res_kw_245_pu

New Load.load_p1ulv210_2 conn=wye bus1=p1ulv210.2 kV=0.12 Vminpu=0.8 Vmaxpu=1.2 model=1 kW=5.947053638705014 kvar=1.2332751328813323 Phases=1 yearly=res_kw_245_pu

New Load.load_p1ulv213_1 conn=wye bus1=p1ulv213.1 kV=0.12 Vminpu=0.8 Vmaxpu=1.2 model=1 kW=3.8748715750127736 kvar=1.5614372175332516 Phases=1 yearly=res_kw_517_pu

New Load.load_p1ulv213_2 conn=wye bus1=p1ulv213.2 kV=0.12 Vminpu=0.8 Vmaxpu=1.2 model=1 kW=3.8748715750127736 kvar=1.5614372175332516 Phases=1 yearly=res_kw_517_pu

New Load.load_p1ulv990_1 conn=wye bus1=p1ulv990.1 kV=0.12 Vminpu=0.8 Vmaxpu=1.2 model=1 kW=3.8748715750127736 kvar=1.5614372175332516 Phases=1 yearly=res_kw_517_pu

New Load.load_p1ulv990_2 conn=wye bus1=p1ulv990.2 kV=0.12 Vminpu=0.8 Vmaxpu=1.2 model=1 kW=3.8748715750127736 kvar=1.5614372175332516 Phases=1 yearly=res_kw_517_pu

New Load.load_p1ulv991_1 conn=wye bus1=p1ulv991.1 kV=0.12 Vminpu=0.8 Vmaxpu=1.2 model=1 kW=4.788649591238137 kvar=1.023651375705972 Phases=1 yearly=res_kw_512_pu

New Load.load_p1ulv991_2 conn=wye bus1=p1ulv991.2 kV=0.12 Vminpu=0.8 Vmaxpu=1.2 model=1 kW=4.788649591238137 kvar=1.023651375705972 Phases=1 yearly=res_kw_512_pu

New Load.load_p1ulv992 conn=wye bus1=p1ulv992.1.2.3 kV=0.48 Vminpu=0.8 Vmaxpu=1.2 model=1 kW=34.44517989778564 kvar=16.341768372095544 Phases=3 yearly=res_kw_473_pu

New Load.load_p1ulv993_1 conn=wye bus1=p1ulv993.1 kV=0.12 Vminpu=0.8 Vmaxpu=1.2 model=1 kW=2.40000228705824 kvar=1.0173787262529668 Phases=1 yearly=res_kw_1205_pu

New Load.load_p1ulv993_2 conn=wye bus1=p1ulv993.2 kV=0.12 Vminpu=0.8 Vmaxpu=1.2 model=1 kW=2.40000228705824 kvar=1.0173787262529668 Phases=1 yearly=res_kw_1205_pu

New Load.load_p1ulv994_1 conn=wye bus1=p1ulv994.1 kV=0.12 Vminpu=0.8 Vmaxpu=1.2 model=1 kW=9.341738473663403 kvar=2.018548151169967 Phases=1 yearly=res_kw_504_pu

New Load.load_p1ulv994_2 conn=wye bus1=p1ulv994.2 kV=0.12 Vminpu=0.8 Vmaxpu=1.2 model=1 kW=9.341738473663403 kvar=2.018548151169967 Phases=1 yearly=res_kw_504_pu

New Load.load_p1ulv995_1 conn=wye bus1=p1ulv995.1 kV=0.12 Vminpu=0.8 Vmaxpu=1.2 model=1 kW=4.760442075087689 kvar=1.0766161551105315 Phases=1 yearly=res_kw_807_pu

New Load.load_p1ulv995_2 conn=wye bus1=p1ulv995.2 kV=0.12 Vminpu=0.8 Vmaxpu=1.2 model=1 kW=4.760442075087689 kvar=1.0766161551105315 Phases=1 yearly=res_kw_807_pu

New Load.load_p1ulv996_1 conn=wye bus1=p1ulv996.1 kV=0.12 Vminpu=0.8 Vmaxpu=1.2 model=1 kW=3.469521951913567 kvar=0.9490620687569232 Phases=1 yearly=res_kw_825_pu

New Load.load_p1ulv996_2 conn=wye bus1=p1ulv996.2 kV=0.12 Vminpu=0.8 Vmaxpu=1.2 model=1 kW=3.469521951913567 kvar=0.9490620687569232 Phases=1 yearly=res_kw_825_pu

New Load.load_p1ulv997_1 conn=wye bus1=p1ulv997.1 kV=0.12 Vminpu=0.8 Vmaxpu=1.2 model=1 kW=4.7264639008757365 kvar=1.36553634213978 Phases=1 yearly=res_kw_1220_pu

New Load.load_p1ulv997_2 conn=wye bus1=p1ulv997.2 kV=0.12 Vminpu=0.8 Vmaxpu=1.2 model=1 kW=4.7264639008757365 kvar=1.36553634213978 Phases=1 yearly=res_kw_1220_pu

New Load.load_p1umv2 conn=wye bus1=p1umv2.1.2.3 kV=12.47 Vminpu=0.8 Vmaxpu=1.2 model=1 kW=2567.1643842471567 kvar=700.1372522288214 Phases=3 yearly=com_kw_15017_pu

New Load.load_p1ulv998_1 conn=wye bus1=p1ulv998.1 kV=0.12 Vminpu=0.8 Vmaxpu=1.2 model=1 kW=4.760442075087689 kvar=1.0766161551105315 Phases=1 yearly=res_kw_807_pu

New Load.load_p1ulv998_2 conn=wye bus1=p1ulv998.2 kV=0.12 Vminpu=0.8 Vmaxpu=1.2 model=1 kW=4.760442075087689 kvar=1.0766161551105315 Phases=1 yearly=res_kw_807_pu

New Load.load_p1ulv999_1 conn=wye bus1=p1ulv999.1 kV=0.12 Vminpu=0.8 Vmaxpu=1.2 model=1 kW=5.723135606665604 kvar=1.5038194991101048 Phases=1 yearly=res_kw_1228_pu

New Load.load_p1ulv999_2 conn=wye bus1=p1ulv999.2 kV=0.12 Vminpu=0.8 Vmaxpu=1.2 model=1 kW=5.723135606665604 kvar=1.5038194991101048 Phases=1 yearly=res_kw_1228_pu

New Load.load_p1ulv1005_1 conn=wye bus1=p1ulv1005.1 kV=0.12 Vminpu=0.8 Vmaxpu=1.2 model=1 kW=4.666080754031652 kvar=0.9704814918535188 Phases=1 yearly=res_kw_280_pu

New Load.load_p1ulv1005_2 conn=wye bus1=p1ulv1005.2 kV=0.12 Vminpu=0.8 Vmaxpu=1.2 model=1 kW=4.666080754031652 kvar=0.9704814918535188 Phases=1 yearly=res_kw_280_pu

New Load.load_p1ulv1006_1 conn=wye bus1=p1ulv1006.1 kV=0.12 Vminpu=0.8 Vmaxpu=1.2 model=1 kW=3.3641909207712115 kvar=0.9284266244461494 Phases=1 yearly=res_kw_523_pu

New Load.load_p1ulv1006_2 conn=wye bus1=p1ulv1006.2 kV=0.12 Vminpu=0.8 Vmaxpu=1.2 model=1 kW=3.3641909207712115 kvar=0.9284266244461494 Phases=1 yearly=res_kw_523_pu

New Load.load_p1ulv1008_1 conn=wye bus1=p1ulv1008.1 kV=0.12 Vminpu=0.8 Vmaxpu=1.2 model=1 kW=8.020736002000627 kvar=0.8077597125403054 Phases=1 yearly=res_kw_411_pu

New Load.load_p1ulv1008_2 conn=wye bus1=p1ulv1008.2 kV=0.12 Vminpu=0.8 Vmaxpu=1.2 model=1 kW=8.020736002000627 kvar=0.8077597125403054 Phases=1 yearly=res_kw_411_pu

New Load.load_p1ulv1012_1 conn=wye bus1=p1ulv1012.1 kV=0.12 Vminpu=0.8 Vmaxpu=1.2 model=1 kW=3.469755020859998 kvar=0.8941520384931253 Phases=1 yearly=res_kw_4_pu

New Load.load_p1ulv1012_2 conn=wye bus1=p1ulv1012.2 kV=0.12 Vminpu=0.8 Vmaxpu=1.2 model=1 kW=3.469755020859998 kvar=0.8941520384931253 Phases=1 yearly=res_kw_4_pu

New Load.load_p1umv4 conn=wye bus1=p1umv4.1.2.3 kV=12.47 Vminpu=0.8 Vmaxpu=1.2 model=1 kW=852.0670775707889 kvar=198.64189483108024 Phases=3 yearly=com_kw_13647_pu

New Load.load_p1ulv1953 conn=wye bus1=p1ulv1953.1.2.3 kV=0.48 Vminpu=0.8 Vmaxpu=1.2 model=1 kW=194.75680866544735 kvar=9.088135712283611 Phases=3 yearly=com_kw_14065_pu

New Load.load_p1ulv3220_1 conn=wye bus1=p1ulv3220.1 kV=0.12 Vminpu=0.8 Vmaxpu=1.2 model=1 kW=2.5047232020051142 kvar=0.6800922265265169 Phases=1 yearly=res_kw_162_pu

New Load.load_p1ulv3220_2 conn=wye bus1=p1ulv3220.2 kV=0.12 Vminpu=0.8 Vmaxpu=1.2 model=1 kW=2.5047232020051142 kvar=0.6800922265265169 Phases=1 yearly=res_kw_162_pu

New Load.load_p1ulv3221_1 conn=wye bus1=p1ulv3221.1 kV=0.12 Vminpu=0.8 Vmaxpu=1.2 model=1 kW=9.341738473663403 kvar=2.018548151169967 Phases=1 yearly=res_kw_504_pu

New Load.load_p1ulv3221_2 conn=wye bus1=p1ulv3221.2 kV=0.12 Vminpu=0.8 Vmaxpu=1.2 model=1 kW=9.341738473663403 kvar=2.018548151169967 Phases=1 yearly=res_kw_504_pu

New Load.load_p1ulv3224_1 conn=wye bus1=p1ulv3224.1 kV=0.12 Vminpu=0.8 Vmaxpu=1.2 model=1 kW=3.3641909207712115 kvar=0.9284266244461494 Phases=1 yearly=res_kw_523_pu

New Load.load_p1ulv3224_2 conn=wye bus1=p1ulv3224.2 kV=0.12 Vminpu=0.8 Vmaxpu=1.2 model=1 kW=3.3641909207712115 kvar=0.9284266244461494 Phases=1 yearly=res_kw_523_pu

New Load.load_p1ulv3225_1 conn=wye bus1=p1ulv3225.1 kV=0.12 Vminpu=0.8 Vmaxpu=1.2 model=1 kW=3.8029744718879392 kvar=1.1462670306842289 Phases=1 yearly=res_kw_263_pu

New Load.load_p1ulv3225_2 conn=wye bus1=p1ulv3225.2 kV=0.12 Vminpu=0.8 Vmaxpu=1.2 model=1 kW=3.8029744718879392 kvar=1.1462670306842289 Phases=1 yearly=res_kw_263_pu

New Load.load_p1ulv3226_1 conn=wye bus1=p1ulv3226.1 kV=0.12 Vminpu=0.8 Vmaxpu=1.2 model=1 kW=3.4468581914223817 kvar=1.1411197390818253 Phases=1 yearly=res_kw_250_pu

New Load.load_p1ulv3226_2 conn=wye bus1=p1ulv3226.2 kV=0.12 Vminpu=0.8 Vmaxpu=1.2 model=1 kW=3.4468581914223817 kvar=1.1411197390818253 Phases=1 yearly=res_kw_250_pu

New Load.load_p1ulv3227_1 conn=wye bus1=p1ulv3227.1 kV=0.12 Vminpu=0.8 Vmaxpu=1.2 model=1 kW=2.40000228705824 kvar=1.0173787262529668 Phases=1 yearly=res_kw_1205_pu

New Load.load_p1ulv3227_2 conn=wye bus1=p1ulv3227.2 kV=0.12 Vminpu=0.8 Vmaxpu=1.2 model=1 kW=2.40000228705824 kvar=1.0173787262529668 Phases=1 yearly=res_kw_1205_pu

New Load.load_p1ulv3229_1 conn=wye bus1=p1ulv3229.1 kV=0.12 Vminpu=0.8 Vmaxpu=1.2 model=1 kW=3.469755020859998 kvar=0.8941520384931253 Phases=1 yearly=res_kw_4_pu

New Load.load_p1ulv3229_2 conn=wye bus1=p1ulv3229.2 kV=0.12 Vminpu=0.8 Vmaxpu=1.2 model=1 kW=3.469755020859998 kvar=0.8941520384931253 Phases=1 yearly=res_kw_4_pu

New Load.load_p1ulv3231_1 conn=wye bus1=p1ulv3231.1 kV=0.12 Vminpu=0.8 Vmaxpu=1.2 model=1 kW=2.9898249364160714 kvar=0.2983164502279761 Phases=1 yearly=res_kw_1070_pu

New Load.load_p1ulv3231_2 conn=wye bus1=p1ulv3231.2 kV=0.12 Vminpu=0.8 Vmaxpu=1.2 model=1 kW=2.9898249364160714 kvar=0.2983164502279761 Phases=1 yearly=res_kw_1070_pu

New Load.load_p1ulv3232_1 conn=wye bus1=p1ulv3232.1 kV=0.12 Vminpu=0.8 Vmaxpu=1.2 model=1 kW=3.8748715750127736 kvar=1.5614372175332516 Phases=1 yearly=res_kw_517_pu

New Load.load_p1ulv3232_2 conn=wye bus1=p1ulv3232.2 kV=0.12 Vminpu=0.8 Vmaxpu=1.2 model=1 kW=3.8748715750127736 kvar=1.5614372175332516 Phases=1 yearly=res_kw_517_pu

New Load.load_p1ulv3233_1 conn=wye bus1=p1ulv3233.1 kV=0.12 Vminpu=0.8 Vmaxpu=1.2 model=1 kW=9.666699253995569 kvar=2.090221480167897 Phases=1 yearly=res_kw_46_pu

New Load.load_p1ulv3233_2 conn=wye bus1=p1ulv3233.2 kV=0.12 Vminpu=0.8 Vmaxpu=1.2 model=1 kW=9.666699253995569 kvar=2.090221480167897 Phases=1 yearly=res_kw_46_pu

New Load.load_p1ulv3239_1 conn=wye bus1=p1ulv3239.1 kV=0.12 Vminpu=0.8 Vmaxpu=1.2 model=1 kW=4.792624300749482 kvar=1.1139407265067676 Phases=1 yearly=res_kw_898_pu

New Load.load_p1ulv3239_2 conn=wye bus1=p1ulv3239.2 kV=0.12 Vminpu=0.8 Vmaxpu=1.2 model=1 kW=4.792624300749482 kvar=1.1139407265067676 Phases=1 yearly=res_kw_898_pu

New Load.load_p1ulv3244_1 conn=wye bus1=p1ulv3244.1 kV=0.12 Vminpu=0.8 Vmaxpu=1.2 model=1 kW=3.629714039262861 kvar=1.2034402112399032 Phases=1 yearly=res_kw_203_pu

New Load.load_p1ulv3244_2 conn=wye bus1=p1ulv3244.2 kV=0.12 Vminpu=0.8 Vmaxpu=1.2 model=1 kW=3.629714039262861 kvar=1.2034402112399032 Phases=1 yearly=res_kw_203_pu

New Load.load_p1ulv3247_1 conn=wye bus1=p1ulv3247.1 kV=0.12 Vminpu=0.8 Vmaxpu=1.2 model=1 kW=3.6844020253442458 kvar=1.4451491397155931 Phases=1 yearly=res_kw_1258_pu

New Load.load_p1ulv3247_2 conn=wye bus1=p1ulv3247.2 kV=0.12 Vminpu=0.8 Vmaxpu=1.2 model=1 kW=3.6844020253442458 kvar=1.4451491397155931 Phases=1 yearly=res_kw_1258_pu

New Load.load_p1ulv5047_1 conn=wye bus1=p1ulv5047.1 kV=0.12 Vminpu=0.8 Vmaxpu=1.2 model=1 kW=6.251204132654125 kvar=1.5952530188558731 Phases=1 yearly=res_kw_1248_pu

New Load.load_p1ulv5047_2 conn=wye bus1=p1ulv5047.2 kV=0.12 Vminpu=0.8 Vmaxpu=1.2 model=1 kW=6.251204132654125 kvar=1.5952530188558731 Phases=1 yearly=res_kw_1248_pu

New Load.load_p1ulv5048_1 conn=wye bus1=p1ulv5048.1 kV=0.12 Vminpu=0.8 Vmaxpu=1.2 model=1 kW=5.675346369339635 kvar=1.238985226090579 Phases=1 yearly=res_kw_1186_pu

New Load.load_p1ulv5048_2 conn=wye bus1=p1ulv5048.2 kV=0.12 Vminpu=0.8 Vmaxpu=1.2 model=1 kW=5.675346369339635 kvar=1.238985226090579 Phases=1 yearly=res_kw_1186_pu

New Load.load_p1ulv5049_1 conn=wye bus1=p1ulv5049.1 kV=0.12 Vminpu=0.8 Vmaxpu=1.2 model=1 kW=4.8861141847383 kvar=1.2417687859549835 Phases=1 yearly=res_kw_549_pu

New Load.load_p1ulv5049_2 conn=wye bus1=p1ulv5049.2 kV=0.12 Vminpu=0.8 Vmaxpu=1.2 model=1 kW=4.8861141847383 kvar=1.2417687859549835 Phases=1 yearly=res_kw_549_pu

New Load.load_p1ulv5050_1 conn=wye bus1=p1ulv5050.1 kV=0.12 Vminpu=0.8 Vmaxpu=1.2 model=1 kW=3.8029744718879392 kvar=1.1462670306842289 Phases=1 yearly=res_kw_263_pu

New Load.load_p1ulv5050_2 conn=wye bus1=p1ulv5050.2 kV=0.12 Vminpu=0.8 Vmaxpu=1.2 model=1 kW=3.8029744718879392 kvar=1.1462670306842289 Phases=1 yearly=res_kw_263_pu

New Load.load_p1ulv5051_1 conn=wye bus1=p1ulv5051.1 kV=0.12 Vminpu=0.8 Vmaxpu=1.2 model=1 kW=3.6844020253442458 kvar=1.4451491397155931 Phases=1 yearly=res_kw_1258_pu

New Load.load_p1ulv5051_2 conn=wye bus1=p1ulv5051.2 kV=0.12 Vminpu=0.8 Vmaxpu=1.2 model=1 kW=3.6844020253442458 kvar=1.4451491397155931 Phases=1 yearly=res_kw_1258_pu

New Load.load_p1ulv5052_1 conn=wye bus1=p1ulv5052.1 kV=0.12 Vminpu=0.8 Vmaxpu=1.2 model=1 kW=10.375628907780863 kvar=4.616486224330442 Phases=1 yearly=res_kw_1267_pu

New Load.load_p1ulv5052_2 conn=wye bus1=p1ulv5052.2 kV=0.12 Vminpu=0.8 Vmaxpu=1.2 model=1 kW=10.375628907780863 kvar=4.616486224330442 Phases=1 yearly=res_kw_1267_pu

New Load.load_p1ulv5053_1 conn=wye bus1=p1ulv5053.1 kV=0.12 Vminpu=0.8 Vmaxpu=1.2 model=1 kW=2.605021030189827 kvar=1.0007509371876184 Phases=1 yearly=res_kw_24_pu

New Load.load_p1ulv5053_2 conn=wye bus1=p1ulv5053.2 kV=0.12 Vminpu=0.8 Vmaxpu=1.2 model=1 kW=2.605021030189827 kvar=1.0007509371876184 Phases=1 yearly=res_kw_24_pu

New Load.load_p1ulv5054_1 conn=wye bus1=p1ulv5054.1 kV=0.12 Vminpu=0.8 Vmaxpu=1.2 model=1 kW=2.40000228705824 kvar=1.0173787262529668 Phases=1 yearly=res_kw_1205_pu

New Load.load_p1ulv5054_2 conn=wye bus1=p1ulv5054.2 kV=0.12 Vminpu=0.8 Vmaxpu=1.2 model=1 kW=2.40000228705824 kvar=1.0173787262529668 Phases=1 yearly=res_kw_1205_pu

New Load.load_p1ulv5055_1 conn=wye bus1=p1ulv5055.1 kV=0.12 Vminpu=0.8 Vmaxpu=1.2 model=1 kW=3.8029744718879392 kvar=1.1462670306842289 Phases=1 yearly=res_kw_263_pu

New Load.load_p1ulv5055_2 conn=wye bus1=p1ulv5055.2 kV=0.12 Vminpu=0.8 Vmaxpu=1.2 model=1 kW=3.8029744718879392 kvar=1.1462670306842289 Phases=1 yearly=res_kw_263_pu

New Load.load_p1ulv5056_1 conn=wye bus1=p1ulv5056.1 kV=0.12 Vminpu=0.8 Vmaxpu=1.2 model=1 kW=9.666699253995569 kvar=2.090221480167897 Phases=1 yearly=res_kw_46_pu

New Load.load_p1ulv5056_2 conn=wye bus1=p1ulv5056.2 kV=0.12 Vminpu=0.8 Vmaxpu=1.2 model=1 kW=9.666699253995569 kvar=2.090221480167897 Phases=1 yearly=res_kw_46_pu

New Load.load_p1ulv5057_1 conn=wye bus1=p1ulv5057.1 kV=0.12 Vminpu=0.8 Vmaxpu=1.2 model=1 kW=4.666080754031652 kvar=0.9704814918535188 Phases=1 yearly=res_kw_280_pu

New Load.load_p1ulv5057_2 conn=wye bus1=p1ulv5057.2 kV=0.12 Vminpu=0.8 Vmaxpu=1.2 model=1 kW=4.666080754031652 kvar=0.9704814918535188 Phases=1 yearly=res_kw_280_pu

New Load.load_p1ulv5058_1 conn=wye bus1=p1ulv5058.1 kV=0.12 Vminpu=0.8 Vmaxpu=1.2 model=1 kW=5.020630418662337 kvar=1.4660260271132275 Phases=1 yearly=res_kw_664_pu

New Load.load_p1ulv5058_2 conn=wye bus1=p1ulv5058.2 kV=0.12 Vminpu=0.8 Vmaxpu=1.2 model=1 kW=5.020630418662337 kvar=1.4660260271132275 Phases=1 yearly=res_kw_664_pu

New Load.load_p1ulv5059_1 conn=wye bus1=p1ulv5059.1 kV=0.12 Vminpu=0.8 Vmaxpu=1.2 model=1 kW=4.817618468644212 kvar=1.1350426223715635 Phases=1 yearly=res_kw_843_pu

New Load.load_p1ulv5059_2 conn=wye bus1=p1ulv5059.2 kV=0.12 Vminpu=0.8 Vmaxpu=1.2 model=1 kW=4.817618468644212 kvar=1.1350426223715635 Phases=1 yearly=res_kw_843_pu

New Load.load_p1ulv5060_1 conn=wye bus1=p1ulv5060.1 kV=0.12 Vminpu=0.8 Vmaxpu=1.2 model=1 kW=22.490493344802942 kvar=6.21075543593501 Phases=1 yearly=com_kw_13585_pu

New Load.load_p1ulv5060_2 conn=wye bus1=p1ulv5060.2 kV=0.12 Vminpu=0.8 Vmaxpu=1.2 model=1 kW=22.490493344802942 kvar=6.21075543593501 Phases=1 yearly=com_kw_13585_pu

New Load.load_p1ulv5061_1 conn=wye bus1=p1ulv5061.1 kV=0.12 Vminpu=0.8 Vmaxpu=1.2 model=1 kW=7.259772519581312 kvar=1.3210086815250959 Phases=1 yearly=res_kw_128_pu

New Load.load_p1ulv5061_2 conn=wye bus1=p1ulv5061.2 kV=0.12 Vminpu=0.8 Vmaxpu=1.2 model=1 kW=7.259772519581312 kvar=1.3210086815250959 Phases=1 yearly=res_kw_128_pu

New Load.load_p1ulv5062_1 conn=wye bus1=p1ulv5062.1 kV=0.12 Vminpu=0.8 Vmaxpu=1.2 model=1 kW=4.666080754031652 kvar=0.9704814918535188 Phases=1 yearly=res_kw_280_pu

New Load.load_p1ulv5062_2 conn=wye bus1=p1ulv5062.2 kV=0.12 Vminpu=0.8 Vmaxpu=1.2 model=1 kW=4.666080754031652 kvar=0.9704814918535188 Phases=1 yearly=res_kw_280_pu

New Load.load_p1ulv5063_1 conn=wye bus1=p1ulv5063.1 kV=0.12 Vminpu=0.8 Vmaxpu=1.2 model=1 kW=4.788649591238137 kvar=1.023651375705972 Phases=1 yearly=res_kw_512_pu

New Load.load_p1ulv5063_2 conn=wye bus1=p1ulv5063.2 kV=0.12 Vminpu=0.8 Vmaxpu=1.2 model=1 kW=4.788649591238137 kvar=1.023651375705972 Phases=1 yearly=res_kw_512_pu

New Load.load_p1ulv5064_1 conn=wye bus1=p1ulv5064.1 kV=0.12 Vminpu=0.8 Vmaxpu=1.2 model=1 kW=3.7845214109638885 kvar=0.7491783232179929 Phases=1 yearly=res_kw_464_pu

New Load.load_p1ulv5064_2 conn=wye bus1=p1ulv5064.2 kV=0.12 Vminpu=0.8 Vmaxpu=1.2 model=1 kW=3.7845214109638885 kvar=0.7491783232179929 Phases=1 yearly=res_kw_464_pu

New Load.load_p1ulv5065_1 conn=wye bus1=p1ulv5065.1 kV=0.12 Vminpu=0.8 Vmaxpu=1.2 model=1 kW=3.0502193323758338 kvar=0.7068547525403183 Phases=1 yearly=res_kw_407_pu

New Load.load_p1ulv5065_2 conn=wye bus1=p1ulv5065.2 kV=0.12 Vminpu=0.8 Vmaxpu=1.2 model=1 kW=3.0502193323758338 kvar=0.7068547525403183 Phases=1 yearly=res_kw_407_pu

New Load.load_p1ulv5066_1 conn=wye bus1=p1ulv5066.1 kV=0.12 Vminpu=0.8 Vmaxpu=1.2 model=1 kW=11.457721527492426 kvar=1.3801854390555242 Phases=1 yearly=res_kw_861_pu

New Load.load_p1ulv5066_2 conn=wye bus1=p1ulv5066.2 kV=0.12 Vminpu=0.8 Vmaxpu=1.2 model=1 kW=11.457721527492426 kvar=1.3801854390555242 Phases=1 yearly=res_kw_861_pu

New Load.load_p1ulv5067_1 conn=wye bus1=p1ulv5067.1 kV=0.12 Vminpu=0.8 Vmaxpu=1.2 model=1 kW=2.6241521841182514 kvar=0.8429304779950015 Phases=1 yearly=res_kw_33_pu

New Load.load_p1ulv5067_2 conn=wye bus1=p1ulv5067.2 kV=0.12 Vminpu=0.8 Vmaxpu=1.2 model=1 kW=2.6241521841182514 kvar=0.8429304779950015 Phases=1 yearly=res_kw_33_pu

New Load.load_p1ulv5069_1 conn=wye bus1=p1ulv5069.1 kV=0.12 Vminpu=0.8 Vmaxpu=1.2 model=1 kW=5.163806898070874 kvar=0.9381412991116911 Phases=1 yearly=res_kw_98_pu

New Load.load_p1ulv5069_2 conn=wye bus1=p1ulv5069.2 kV=0.12 Vminpu=0.8 Vmaxpu=1.2 model=1 kW=5.163806898070874 kvar=0.9381412991116911 Phases=1 yearly=res_kw_98_pu

New Load.load_p1ulv5070_1 conn=wye bus1=p1ulv5070.1 kV=0.12 Vminpu=0.8 Vmaxpu=1.2 model=1 kW=3.8029744718879392 kvar=1.1462670306842289 Phases=1 yearly=res_kw_263_pu

New Load.load_p1ulv5070_2 conn=wye bus1=p1ulv5070.2 kV=0.12 Vminpu=0.8 Vmaxpu=1.2 model=1 kW=3.8029744718879392 kvar=1.1462670306842289 Phases=1 yearly=res_kw_263_pu

New Load.load_p1ulv5072_1 conn=wye bus1=p1ulv5072.1 kV=0.12 Vminpu=0.8 Vmaxpu=1.2 model=1 kW=2.40000228705824 kvar=1.0173787262529668 Phases=1 yearly=res_kw_1205_pu

New Load.load_p1ulv5072_2 conn=wye bus1=p1ulv5072.2 kV=0.12 Vminpu=0.8 Vmaxpu=1.2 model=1 kW=2.40000228705824 kvar=1.0173787262529668 Phases=1 yearly=res_kw_1205_pu

New Load.load_p1ulv5073_1 conn=wye bus1=p1ulv5073.1 kV=0.12 Vminpu=0.8 Vmaxpu=1.2 model=1 kW=2.4402285312138985 kvar=0.9342273883677934 Phases=1 yearly=res_kw_409_pu

New Load.load_p1ulv5073_2 conn=wye bus1=p1ulv5073.2 kV=0.12 Vminpu=0.8 Vmaxpu=1.2 model=1 kW=2.4402285312138985 kvar=0.9342273883677934 Phases=1 yearly=res_kw_409_pu

New Load.load_p1ulv5074_1 conn=wye bus1=p1ulv5074.1 kV=0.12 Vminpu=0.8 Vmaxpu=1.2 model=1 kW=2.40000228705824 kvar=1.0173787262529668 Phases=1 yearly=res_kw_1205_pu

New Load.load_p1ulv5074_2 conn=wye bus1=p1ulv5074.2 kV=0.12 Vminpu=0.8 Vmaxpu=1.2 model=1 kW=2.40000228705824 kvar=1.0173787262529668 Phases=1 yearly=res_kw_1205_pu

New Load.load_p1ulv5075_1 conn=wye bus1=p1ulv5075.1 kV=0.12 Vminpu=0.8 Vmaxpu=1.2 model=1 kW=8.038199047739793 kvar=1.8120887952584321 Phases=1 yearly=res_kw_169_pu

New Load.load_p1ulv5075_2 conn=wye bus1=p1ulv5075.2 kV=0.12 Vminpu=0.8 Vmaxpu=1.2 model=1 kW=8.038199047739793 kvar=1.8120887952584321 Phases=1 yearly=res_kw_169_pu

New Load.load_p1ulv5077 conn=wye bus1=p1ulv5077.1.2.3 kV=0.48 Vminpu=0.8 Vmaxpu=1.2 model=1 kW=37.58543775618434 kvar=11.086768271344837 Phases=3 yearly=com_kw_13997_pu

New Load.load_p1ulv5078_1 conn=wye bus1=p1ulv5078.1 kV=0.12 Vminpu=0.8 Vmaxpu=1.2 model=1 kW=3.8748715750127736 kvar=1.5614372175332516 Phases=1 yearly=res_kw_517_pu

New Load.load_p1ulv5078_2 conn=wye bus1=p1ulv5078.2 kV=0.12 Vminpu=0.8 Vmaxpu=1.2 model=1 kW=3.8748715750127736 kvar=1.5614372175332516 Phases=1 yearly=res_kw_517_pu

New Load.load_p1ulv5079_1 conn=wye bus1=p1ulv5079.1 kV=0.12 Vminpu=0.8 Vmaxpu=1.2 model=1 kW=5.7981206415948625 kvar=1.408328470231474 Phases=1 yearly=res_kw_995_pu

New Load.load_p1ulv5079_2 conn=wye bus1=p1ulv5079.2 kV=0.12 Vminpu=0.8 Vmaxpu=1.2 model=1 kW=5.7981206415948625 kvar=1.408328470231474 Phases=1 yearly=res_kw_995_pu

New Load.load_p1ulv5080_1 conn=wye bus1=p1ulv5080.1 kV=0.12 Vminpu=0.8 Vmaxpu=1.2 model=1 kW=7.7578735794910925 kvar=1.9049941012910125 Phases=1 yearly=res_kw_863_pu

New Load.load_p1ulv5080_2 conn=wye bus1=p1ulv5080.2 kV=0.12 Vminpu=0.8 Vmaxpu=1.2 model=1 kW=7.7578735794910925 kvar=1.9049941012910125 Phases=1 yearly=res_kw_863_pu

New Load.load_p1ulv5082_1 conn=wye bus1=p1ulv5082.1 kV=0.12 Vminpu=0.8 Vmaxpu=1.2 model=1 kW=1.8618983584330409 kvar=0.7337589993741062 Phases=1 yearly=res_kw_141_pu

New Load.load_p1ulv5082_2 conn=wye bus1=p1ulv5082.2 kV=0.12 Vminpu=0.8 Vmaxpu=1.2 model=1 kW=1.8618983584330409 kvar=0.7337589993741062 Phases=1 yearly=res_kw_141_pu

New Load.load_p1ulv5083_1 conn=wye bus1=p1ulv5083.1 kV=0.12 Vminpu=0.8 Vmaxpu=1.2 model=1 kW=8.020736002000627 kvar=0.8077597125403054 Phases=1 yearly=res_kw_411_pu

New Load.load_p1ulv5083_2 conn=wye bus1=p1ulv5083.2 kV=0.12 Vminpu=0.8 Vmaxpu=1.2 model=1 kW=8.020736002000627 kvar=0.8077597125403054 Phases=1 yearly=res_kw_411_pu

New Load.load_p1ulv5084_1 conn=wye bus1=p1ulv5084.1 kV=0.12 Vminpu=0.8 Vmaxpu=1.2 model=1 kW=3.9060227283575606 kvar=0.8578020352767629 Phases=1 yearly=res_kw_278_pu

New Load.load_p1ulv5084_2 conn=wye bus1=p1ulv5084.2 kV=0.12 Vminpu=0.8 Vmaxpu=1.2 model=1 kW=3.9060227283575606 kvar=0.8578020352767629 Phases=1 yearly=res_kw_278_pu

New Load.load_p1ulv5085_1 conn=wye bus1=p1ulv5085.1 kV=0.12 Vminpu=0.8 Vmaxpu=1.2 model=1 kW=5.436729579526792 kvar=1.2488470964899614 Phases=1 yearly=res_kw_454_pu

New Load.load_p1ulv5085_2 conn=wye bus1=p1ulv5085.2 kV=0.12 Vminpu=0.8 Vmaxpu=1.2 model=1 kW=5.436729579526792 kvar=1.2488470964899614 Phases=1 yearly=res_kw_454_pu

New Load.load_p1ulv5086_1 conn=wye bus1=p1ulv5086.1 kV=0.12 Vminpu=0.8 Vmaxpu=1.2 model=1 kW=7.259772519581312 kvar=1.3210086815250959 Phases=1 yearly=res_kw_128_pu

New Load.load_p1ulv5086_2 conn=wye bus1=p1ulv5086.2 kV=0.12 Vminpu=0.8 Vmaxpu=1.2 model=1 kW=7.259772519581312 kvar=1.3210086815250959 Phases=1 yearly=res_kw_128_pu

New Load.load_p1ulv5087_1 conn=wye bus1=p1ulv5087.1 kV=0.12 Vminpu=0.8 Vmaxpu=1.2 model=1 kW=2.605021030189827 kvar=1.0007509371876184 Phases=1 yearly=res_kw_24_pu

New Load.load_p1ulv5087_2 conn=wye bus1=p1ulv5087.2 kV=0.12 Vminpu=0.8 Vmaxpu=1.2 model=1 kW=2.605021030189827 kvar=1.0007509371876184 Phases=1 yearly=res_kw_24_pu

New Load.load_p1ulv5088 conn=wye bus1=p1ulv5088.1.2.3 kV=0.48 Vminpu=0.8 Vmaxpu=1.2 model=1 kW=95.43314089282217 kvar=23.65605569905877 Phases=3 yearly=com_kw_14115_pu

New Load.load_p1ulv5089 conn=wye bus1=p1ulv5089.1.2.3 kV=0.48 Vminpu=0.8 Vmaxpu=1.2 model=1 kW=16.286107119464134 kvar=2.539850332498547 Phases=3 yearly=res_kw_546_pu

New Load.load_p1ulv5090_1 conn=wye bus1=p1ulv5090.1 kV=0.12 Vminpu=0.8 Vmaxpu=1.2 model=1 kW=4.47171304939181 kvar=1.1676103385976955 Phases=1 yearly=res_kw_627_pu

New Load.load_p1ulv5090_2 conn=wye bus1=p1ulv5090.2 kV=0.12 Vminpu=0.8 Vmaxpu=1.2 model=1 kW=4.47171304939181 kvar=1.1676103385976955 Phases=1 yearly=res_kw_627_pu

New Load.load_p1ulv5092_1 conn=wye bus1=p1ulv5092.1 kV=0.12 Vminpu=0.8 Vmaxpu=1.2 model=1 kW=4.081735511976485 kvar=0.9882394625849078 Phases=1 yearly=com_kw_14650_pu

New Load.load_p1ulv5092_2 conn=wye bus1=p1ulv5092.2 kV=0.12 Vminpu=0.8 Vmaxpu=1.2 model=1 kW=4.081735511976485 kvar=0.9882394625849078 Phases=1 yearly=com_kw_14650_pu

New Load.load_p1ulv5094_1 conn=wye bus1=p1ulv5094.1 kV=0.12 Vminpu=0.8 Vmaxpu=1.2 model=1 kW=11.103412860117606 kvar=0.3466211695646434 Phases=1 yearly=com_kw_14427_pu

New Load.load_p1ulv5094_2 conn=wye bus1=p1ulv5094.2 kV=0.12 Vminpu=0.8 Vmaxpu=1.2 model=1 kW=11.103412860117606 kvar=0.3466211695646434 Phases=1 yearly=com_kw_14427_pu

New Load.load_p1ulv5787_1 conn=wye bus1=p1ulv5787.1 kV=0.12 Vminpu=0.8 Vmaxpu=1.2 model=1 kW=4.889402611994926 kvar=1.0559288347164948 Phases=1 yearly=res_kw_1160_pu

New Load.load_p1ulv5787_2 conn=wye bus1=p1ulv5787.2 kV=0.12 Vminpu=0.8 Vmaxpu=1.2 model=1 kW=4.889402611994926 kvar=1.0559288347164948 Phases=1 yearly=res_kw_1160_pu

New Load.load_p1ulv5788_1 conn=wye bus1=p1ulv5788.1 kV=0.12 Vminpu=0.8 Vmaxpu=1.2 model=1 kW=4.78815623948431 kvar=1.2110296754961107 Phases=1 yearly=res_kw_842_pu

New Load.load_p1ulv5788_2 conn=wye bus1=p1ulv5788.2 kV=0.12 Vminpu=0.8 Vmaxpu=1.2 model=1 kW=4.78815623948431 kvar=1.2110296754961107 Phases=1 yearly=res_kw_842_pu

New Load.load_p1ulv5799_1 conn=wye bus1=p1ulv5799.1 kV=0.12 Vminpu=0.8 Vmaxpu=1.2 model=1 kW=6.897997484512368 kvar=1.5073573946072503 Phases=1 yearly=res_kw_40_pu

New Load.load_p1ulv5799_2 conn=wye bus1=p1ulv5799.2 kV=0.12 Vminpu=0.8 Vmaxpu=1.2 model=1 kW=6.897997484512368 kvar=1.5073573946072503 Phases=1 yearly=res_kw_40_pu

New Load.load_p1ulv7396_1 conn=wye bus1=p1ulv7396.1 kV=0.12 Vminpu=0.8 Vmaxpu=1.2 model=1 kW=4.5456747946519025 kvar=0.8738343809524335 Phases=1 yearly=res_kw_1142_pu

New Load.load_p1ulv7396_2 conn=wye bus1=p1ulv7396.2 kV=0.12 Vminpu=0.8 Vmaxpu=1.2 model=1 kW=4.5456747946519025 kvar=0.8738343809524335 Phases=1 yearly=res_kw_1142_pu

New Load.load_p1ulv7397_1 conn=wye bus1=p1ulv7397.1 kV=0.12 Vminpu=0.8 Vmaxpu=1.2 model=1 kW=5.657185051194877 kvar=1.2069063012387689 Phases=1 yearly=res_kw_780_pu

New Load.load_p1ulv7397_2 conn=wye bus1=p1ulv7397.2 kV=0.12 Vminpu=0.8 Vmaxpu=1.2 model=1 kW=5.657185051194877 kvar=1.2069063012387689 Phases=1 yearly=res_kw_780_pu

New Load.load_p1ulv7398_1 conn=wye bus1=p1ulv7398.1 kV=0.12 Vminpu=0.8 Vmaxpu=1.2 model=1 kW=2.9178485115923896 kvar=1.0715119122844614 Phases=1 yearly=res_kw_1149_pu

New Load.load_p1ulv7398_2 conn=wye bus1=p1ulv7398.2 kV=0.12 Vminpu=0.8 Vmaxpu=1.2 model=1 kW=2.9178485115923896 kvar=1.0715119122844614 Phases=1 yearly=res_kw_1149_pu

New Load.load_p1ulv7399_1 conn=wye bus1=p1ulv7399.1 kV=0.12 Vminpu=0.8 Vmaxpu=1.2 model=1 kW=3.963001053413761 kvar=0.9410786890170905 Phases=1 yearly=res_kw_1256_pu

New Load.load_p1ulv7399_2 conn=wye bus1=p1ulv7399.2 kV=0.12 Vminpu=0.8 Vmaxpu=1.2 model=1 kW=3.963001053413761 kvar=0.9410786890170905 Phases=1 yearly=res_kw_1256_pu

New Load.load_p1ulv7400_1 conn=wye bus1=p1ulv7400.1 kV=0.12 Vminpu=0.8 Vmaxpu=1.2 model=1 kW=2.9178485115923896 kvar=1.0715119122844614 Phases=1 yearly=res_kw_1149_pu

New Load.load_p1ulv7400_2 conn=wye bus1=p1ulv7400.2 kV=0.12 Vminpu=0.8 Vmaxpu=1.2 model=1 kW=2.9178485115923896 kvar=1.0715119122844614 Phases=1 yearly=res_kw_1149_pu

New Load.load_p1ulv7401_1 conn=wye bus1=p1ulv7401.1 kV=0.12 Vminpu=0.8 Vmaxpu=1.2 model=1 kW=3.4468581914223817 kvar=1.1411197390818253 Phases=1 yearly=res_kw_250_pu

New Load.load_p1ulv7401_2 conn=wye bus1=p1ulv7401.2 kV=0.12 Vminpu=0.8 Vmaxpu=1.2 model=1 kW=3.4468581914223817 kvar=1.1411197390818253 Phases=1 yearly=res_kw_250_pu

New Load.load_p1ulv7402_1 conn=wye bus1=p1ulv7402.1 kV=0.12 Vminpu=0.8 Vmaxpu=1.2 model=1 kW=5.077964450618387 kvar=1.0236236527709202 Phases=1 yearly=res_kw_283_pu

New Load.load_p1ulv7402_2 conn=wye bus1=p1ulv7402.2 kV=0.12 Vminpu=0.8 Vmaxpu=1.2 model=1 kW=5.077964450618387 kvar=1.0236236527709202 Phases=1 yearly=res_kw_283_pu

New Load.load_p1ulv7403_1 conn=wye bus1=p1ulv7403.1 kV=0.12 Vminpu=0.8 Vmaxpu=1.2 model=1 kW=4.889402611994926 kvar=1.0559288347164948 Phases=1 yearly=res_kw_1160_pu

New Load.load_p1ulv7403_2 conn=wye bus1=p1ulv7403.2 kV=0.12 Vminpu=0.8 Vmaxpu=1.2 model=1 kW=4.889402611994926 kvar=1.0559288347164948 Phases=1 yearly=res_kw_1160_pu

New Load.load_p1ulv7404 conn=wye bus1=p1ulv7404.1.2.3 kV=0.48 Vminpu=0.8 Vmaxpu=1.2 model=1 kW=59.72846886319797 kvar=12.07608368967826 Phases=3 yearly=res_kw_217_pu

New Load.load_p1ulv7405_1 conn=wye bus1=p1ulv7405.1 kV=0.12 Vminpu=0.8 Vmaxpu=1.2 model=1 kW=3.963001053413761 kvar=0.9410786890170905 Phases=1 yearly=res_kw_1256_pu

New Load.load_p1ulv7405_2 conn=wye bus1=p1ulv7405.2 kV=0.12 Vminpu=0.8 Vmaxpu=1.2 model=1 kW=3.963001053413761 kvar=0.9410786890170905 Phases=1 yearly=res_kw_1256_pu

New Load.load_p1ulv7406_1 conn=wye bus1=p1ulv7406.1 kV=0.12 Vminpu=0.8 Vmaxpu=1.2 model=1 kW=18.487291050551754 kvar=3.8726939013399893 Phases=1 yearly=res_kw_271_pu

New Load.load_p1ulv7406_2 conn=wye bus1=p1ulv7406.2 kV=0.12 Vminpu=0.8 Vmaxpu=1.2 model=1 kW=18.487291050551754 kvar=3.8726939013399893 Phases=1 yearly=res_kw_271_pu

New Load.load_p1ulv7407_1 conn=wye bus1=p1ulv7407.1 kV=0.12 Vminpu=0.8 Vmaxpu=1.2 model=1 kW=4.16464238338737 kvar=0.9759614008792458 Phases=1 yearly=res_kw_968_pu

New Load.load_p1ulv7407_2 conn=wye bus1=p1ulv7407.2 kV=0.12 Vminpu=0.8 Vmaxpu=1.2 model=1 kW=4.16464238338737 kvar=0.9759614008792458 Phases=1 yearly=res_kw_968_pu

New Load.load_p1ulv7408_1 conn=wye bus1=p1ulv7408.1 kV=0.12 Vminpu=0.8 Vmaxpu=1.2 model=1 kW=4.658663502989286 kvar=1.3388389434895354 Phases=1 yearly=res_kw_182_pu

New Load.load_p1ulv7408_2 conn=wye bus1=p1ulv7408.2 kV=0.12 Vminpu=0.8 Vmaxpu=1.2 model=1 kW=4.658663502989286 kvar=1.3388389434895354 Phases=1 yearly=res_kw_182_pu

New Load.load_p1ulv7409_1 conn=wye bus1=p1ulv7409.1 kV=0.12 Vminpu=0.8 Vmaxpu=1.2 model=1 kW=3.6844020253442458 kvar=1.4451491397155931 Phases=1 yearly=res_kw_1258_pu

New Load.load_p1ulv7409_2 conn=wye bus1=p1ulv7409.2 kV=0.12 Vminpu=0.8 Vmaxpu=1.2 model=1 kW=3.6844020253442458 kvar=1.4451491397155931 Phases=1 yearly=res_kw_1258_pu

New Load.load_p1ulv7410_1 conn=wye bus1=p1ulv7410.1 kV=0.12 Vminpu=0.8 Vmaxpu=1.2 model=1 kW=7.151603169892386 kvar=1.493762478537685 Phases=1 yearly=res_kw_30_pu

New Load.load_p1ulv7410_2 conn=wye bus1=p1ulv7410.2 kV=0.12 Vminpu=0.8 Vmaxpu=1.2 model=1 kW=7.151603169892386 kvar=1.493762478537685 Phases=1 yearly=res_kw_30_pu

New Load.load_p1ulv7411_1 conn=wye bus1=p1ulv7411.1 kV=0.12 Vminpu=0.8 Vmaxpu=1.2 model=1 kW=2.5047232020051142 kvar=0.6800922265265169 Phases=1 yearly=res_kw_162_pu

New Load.load_p1ulv7411_2 conn=wye bus1=p1ulv7411.2 kV=0.12 Vminpu=0.8 Vmaxpu=1.2 model=1 kW=2.5047232020051142 kvar=0.6800922265265169 Phases=1 yearly=res_kw_162_pu
