New Load.load_p1ulv1289_1 conn=wye bus1=p1ulv1289.1 kV=0.12 Vminpu=0.8 Vmaxpu=1.2 model=1 kW=5.067119369161782 kvar=0.927068693772249 Phases=1 yearly=res_kw_396_pu

New Load.load_p1ulv1289_2 conn=wye bus1=p1ulv1289.2 kV=0.12 Vminpu=0.8 Vmaxpu=1.2 model=1 kW=5.067119369161782 kvar=0.927068693772249 Phases=1 yearly=res_kw_396_pu

New Load.load_p1ulv1290_1 conn=wye bus1=p1ulv1289.1 kV=0.12 Vminpu=0.8 Vmaxpu=1.2 model=1 kW=2.1376631749204993 kvar=0.6218033466021168 Phases=1 yearly=res_kw_93_pu

New Load.load_p1ulv1290_2 conn=wye bus1=p1ulv1289.2 kV=0.12 Vminpu=0.8 Vmaxpu=1.2 model=1 kW=2.1376631749204993 kvar=0.6218033466021168 Phases=1 yearly=res_kw_93_pu

New Load.load_p1ulv1291_1 conn=wye bus1=p1ulv1291.1 kV=0.12 Vminpu=0.8 Vmaxpu=1.2 model=1 kW=2.1376631749204993 kvar=0.6218033466021168 Phases=1 yearly=res_kw_93_pu

New Load.load_p1ulv1291_2 conn=wye bus1=p1ulv1291.2 kV=0.12 Vminpu=0.8 Vmaxpu=1.2 model=1 kW=2.1376631749204993 kvar=0.6218033466021168 Phases=1 yearly=res_kw_93_pu

New Load.load_p1ulv1292_1 conn=wye bus1=p1ulv1291.1 kV=0.12 Vminpu=0.8 Vmaxpu=1.2 model=1 kW=2.1376631749204993 kvar=0.6218033466021168 Phases=1 yearly=res_kw_93_pu

New Load.load_p1ulv1292_2 conn=wye bus1=p1ulv1291.2 kV=0.12 Vminpu=0.8 Vmaxpu=1.2 model=1 kW=2.1376631749204993 kvar=0.6218033466021168 Phases=1 yearly=res_kw_93_pu

New Load.load_p1ulv1293_1 conn=wye bus1=p1ulv1293.1 kV=0.12 Vminpu=0.8 Vmaxpu=1.2 model=1 kW=2.605021030189827 kvar=1.0007509371876184 Phases=1 yearly=res_kw_24_pu

New Load.load_p1ulv1293_2 conn=wye bus1=p1ulv1293.2 kV=0.12 Vminpu=0.8 Vmaxpu=1.2 model=1 kW=2.605021030189827 kvar=1.0007509371876184 Phases=1 yearly=res_kw_24_pu

New Load.load_p1ulv1294_1 conn=wye bus1=p1ulv1294.1 kV=0.12 Vminpu=0.8 Vmaxpu=1.2 model=1 kW=3.0502193323758338 kvar=0.7068547525403183 Phases=1 yearly=res_kw_407_pu

New Load.load_p1ulv1294_2 conn=wye bus1=p1ulv1294.2 kV=0.12 Vminpu=0.8 Vmaxpu=1.2 model=1 kW=3.0502193323758338 kvar=0.7068547525403183 Phases=1 yearly=res_kw_407_pu

New Load.load_p1ulv1295_1 conn=wye bus1=p1ulv1295.1 kV=0.12 Vminpu=0.8 Vmaxpu=1.2 model=1 kW=2.1376631749204993 kvar=0.6218033466021168 Phases=1 yearly=res_kw_93_pu

New Load.load_p1ulv1295_2 conn=wye bus1=p1ulv1295.2 kV=0.12 Vminpu=0.8 Vmaxpu=1.2 model=1 kW=2.1376631749204993 kvar=0.6218033466021168 Phases=1 yearly=res_kw_93_pu

New Load.load_p1ulv1296_1 conn=wye bus1=p1ulv1295.1 kV=0.12 Vminpu=0.8 Vmaxpu=1.2 model=1 kW=2.1376631749204993 kvar=0.6218033466021168 Phases=1 yearly=res_kw_93_pu

New Load.load_p1ulv1296_2 conn=wye bus1=p1ulv1295.2 kV=0.12 Vminpu=0.8 Vmaxpu=1.2 model=1 kW=2.1376631749204993 kvar=0.6218033466021168 Phases=1 yearly=res_kw_93_pu

New Load.load_p1ulv1297_1 conn=wye bus1=p1ulv1297.1 kV=0.12 Vminpu=0.8 Vmaxpu=1.2 model=1 kW=2.1376631749204993 kvar=0.6218033466021168 Phases=1 yearly=res_kw_93_pu

New Load.load_p1ulv1297_2 conn=wye bus1=p1ulv1297.2 kV=0.12 Vminpu=0.8 Vmaxpu=1.2 model=1 kW=2.1376631749204993 kvar=0.6218033466021168 Phases=1 yearly=res_kw_93_pu

New Load.load_p1ulv1394_1 conn=wye bus1=p1ulv1394.1 kV=0.12 Vminpu=0.8 Vmaxpu=1.2 model=1 kW=4.081735511976485 kvar=0.9882394625849078 Phases=1 yearly=com_kw_14650_pu

New Load.load_p1ulv1394_2 conn=wye bus1=p1ulv1394.2 kV=0.12 Vminpu=0.8 Vmaxpu=1.2 model=1 kW=4.081735511976485 kvar=0.9882394625849078 Phases=1 yearly=com_kw_14650_pu

New Load.load_p1ulv1395 conn=wye bus1=p1ulv1395.1.2.3 kV=0.48 Vminpu=0.8 Vmaxpu=1.2 model=1 kW=28.785882823316648 kvar=7.6383271459926005 Phases=3 yearly=com_kw_14590_pu

New Load.load_p1ulv4347 conn=wye bus1=p1ulv4347.1.2.3 kV=0.48 Vminpu=0.8 Vmaxpu=1.2 model=1 kW=26.924251137251968 kvar=7.5580942801373014 Phases=3 yearly=com_kw_12992_pu

New Load.load_p1ulv4348 conn=wye bus1=p1ulv4348.1.2.3 kV=0.48 Vminpu=0.8 Vmaxpu=1.2 model=1 kW=47.12010742694797 kvar=3.9026917487506982 Phases=3 yearly=com_kw_14349_pu

New Load.load_p1ulv4349_1 conn=wye bus1=p1ulv4349.1 kV=0.12 Vminpu=0.8 Vmaxpu=1.2 model=1 kW=2.456740089175818 kvar=0.4991709793701422 Phases=1 yearly=res_kw_331_pu

New Load.load_p1ulv4349_2 conn=wye bus1=p1ulv4349.2 kV=0.12 Vminpu=0.8 Vmaxpu=1.2 model=1 kW=2.456740089175818 kvar=0.4991709793701422 Phases=1 yearly=res_kw_331_pu

New Load.load_p1ulv4350 conn=wye bus1=p1ulv4350.1.2.3 kV=0.48 Vminpu=0.8 Vmaxpu=1.2 model=1 kW=37.58543775618434 kvar=11.086768271344837 Phases=3 yearly=com_kw_13997_pu

New Load.load_p1ulv4352_1 conn=wye bus1=p1ulv4352.1 kV=0.12 Vminpu=0.8 Vmaxpu=1.2 model=1 kW=3.6844020253442458 kvar=1.4451491397155931 Phases=1 yearly=res_kw_1258_pu

New Load.load_p1ulv4352_2 conn=wye bus1=p1ulv4352.2 kV=0.12 Vminpu=0.8 Vmaxpu=1.2 model=1 kW=3.6844020253442458 kvar=1.4451491397155931 Phases=1 yearly=res_kw_1258_pu

New Load.load_p1ulv4353_1 conn=wye bus1=p1ulv4353.1 kV=0.12 Vminpu=0.8 Vmaxpu=1.2 model=1 kW=3.460037762068802 kvar=0.6117019426679855 Phases=1 yearly=res_kw_205_pu

New Load.load_p1ulv4353_2 conn=wye bus1=p1ulv4353.2 kV=0.12 Vminpu=0.8 Vmaxpu=1.2 model=1 kW=3.460037762068802 kvar=0.6117019426679855 Phases=1 yearly=res_kw_205_pu

New Load.load_p1ulv4354_1 conn=wye bus1=p1ulv4354.1 kV=0.12 Vminpu=0.8 Vmaxpu=1.2 model=1 kW=5.991566549041883 kvar=1.4552695367795996 Phases=1 yearly=res_kw_1283_pu

New Load.load_p1ulv4354_2 conn=wye bus1=p1ulv4354.2 kV=0.12 Vminpu=0.8 Vmaxpu=1.2 model=1 kW=5.991566549041883 kvar=1.4552695367795996 Phases=1 yearly=res_kw_1283_pu

New Load.load_p1ulv4356_1 conn=wye bus1=p1ulv4356.1 kV=0.12 Vminpu=0.8 Vmaxpu=1.2 model=1 kW=5.466651771327982 kvar=1.2745975671486984 Phases=1 yearly=res_kw_933_pu

New Load.load_p1ulv4356_2 conn=wye bus1=p1ulv4356.2 kV=0.12 Vminpu=0.8 Vmaxpu=1.2 model=1 kW=5.466651771327982 kvar=1.2745975671486984 Phases=1 yearly=res_kw_933_pu

New Load.load_p1ulv4783_1 conn=wye bus1=p1ulv4783.1 kV=0.12 Vminpu=0.8 Vmaxpu=1.2 model=1 kW=5.1496269559453545 kvar=1.5323145223091108 Phases=1 yearly=com_kw_14231_pu

New Load.load_p1ulv4783_2 conn=wye bus1=p1ulv4783.2 kV=0.12 Vminpu=0.8 Vmaxpu=1.2 model=1 kW=5.1496269559453545 kvar=1.5323145223091108 Phases=1 yearly=com_kw_14231_pu

New Load.load_p1ulv4790 conn=wye bus1=p1ulv4790.1.2.3 kV=0.48 Vminpu=0.8 Vmaxpu=1.2 model=1 kW=28.785882823316648 kvar=7.6383271459926005 Phases=3 yearly=com_kw_14590_pu

New Load.load_p1ulv4796_1 conn=wye bus1=p1ulv4796.1 kV=0.12 Vminpu=0.8 Vmaxpu=1.2 model=1 kW=6.139488924452324 kvar=1.0282575631325632 Phases=1 yearly=res_kw_421_pu

New Load.load_p1ulv4796_2 conn=wye bus1=p1ulv4796.2 kV=0.12 Vminpu=0.8 Vmaxpu=1.2 model=1 kW=6.139488924452324 kvar=1.0282575631325632 Phases=1 yearly=res_kw_421_pu

New Load.load_p1ulv4797_1 conn=wye bus1=p1ulv4797.1 kV=0.12 Vminpu=0.8 Vmaxpu=1.2 model=1 kW=4.439796889213601 kvar=1.1115159121346108 Phases=1 yearly=res_kw_457_pu

New Load.load_p1ulv4797_2 conn=wye bus1=p1ulv4797.2 kV=0.12 Vminpu=0.8 Vmaxpu=1.2 model=1 kW=4.439796889213601 kvar=1.1115159121346108 Phases=1 yearly=res_kw_457_pu

New Load.load_p1ulv4802_1 conn=wye bus1=p1ulv4802.1 kV=0.12 Vminpu=0.8 Vmaxpu=1.2 model=1 kW=3.4468581914223817 kvar=1.1411197390818253 Phases=1 yearly=res_kw_250_pu

New Load.load_p1ulv4802_2 conn=wye bus1=p1ulv4802.2 kV=0.12 Vminpu=0.8 Vmaxpu=1.2 model=1 kW=3.4468581914223817 kvar=1.1411197390818253 Phases=1 yearly=res_kw_250_pu

New Load.load_p1ulv4809 conn=wye bus1=p1ulv4809.1.2.3 kV=0.48 Vminpu=0.8 Vmaxpu=1.2 model=1 kW=139.8917722207126 kvar=6.109246877535022 Phases=3 yearly=com_kw_14536_pu

New Load.load_p1ulv4854_1 conn=wye bus1=p1ulv4854.1 kV=0.12 Vminpu=0.8 Vmaxpu=1.2 model=1 kW=2.7964925670698424 kvar=0.800653953636514 Phases=1 yearly=com_kw_13842_pu

New Load.load_p1ulv4854_2 conn=wye bus1=p1ulv4854.2 kV=0.12 Vminpu=0.8 Vmaxpu=1.2 model=1 kW=2.7964925670698424 kvar=0.800653953636514 Phases=1 yearly=com_kw_13842_pu

New Load.load_p1ulv4855 conn=wye bus1=p1ulv4855.1.2.3 kV=0.48 Vminpu=0.8 Vmaxpu=1.2 model=1 kW=34.00847778543105 kvar=8.340557071774255 Phases=3 yearly=com_kw_15073_pu

New Load.load_p1ulv9118 conn=wye bus1=p1ulv9118.1.2.3 kV=0.48 Vminpu=0.8 Vmaxpu=1.2 model=1 kW=48.561523049871006 kvar=4.708642227134872 Phases=3 yearly=com_kw_12935_pu

New Load.load_p1ulv9120 conn=wye bus1=p1ulv9118.1.2.3 kV=0.48 Vminpu=0.8 Vmaxpu=1.2 model=1 kW=35.54281830981262 kvar=9.966226563696083 Phases=3 yearly=com_kw_14383_pu

New Load.load_p1ulv9151 conn=wye bus1=p1ulv9151.1.2.3 kV=0.48 Vminpu=0.8 Vmaxpu=1.2 model=1 kW=17.385566234580132 kvar=4.473438171780322 Phases=3 yearly=com_kw_14420_pu

New Load.load_p1ulv9152 conn=wye bus1=p1ulv9152.1.2.3 kV=0.48 Vminpu=0.8 Vmaxpu=1.2 model=1 kW=36.50723669611415 kvar=5.711557870450742 Phases=3 yearly=com_kw_14802_pu

New Load.load_p1ulv9153 conn=wye bus1=p1ulv9153.1.2.3 kV=0.48 Vminpu=0.8 Vmaxpu=1.2 model=1 kW=41.27726434904335 kvar=10.826959957077602 Phases=3 yearly=com_kw_13682_pu

New Load.load_p1ulv9154_1 conn=wye bus1=p1ulv9154.1 kV=0.12 Vminpu=0.8 Vmaxpu=1.2 model=1 kW=2.0313586656693827 kvar=0.5942635047770736 Phases=1 yearly=com_kw_13386_pu

New Load.load_p1ulv9154_2 conn=wye bus1=p1ulv9154.2 kV=0.12 Vminpu=0.8 Vmaxpu=1.2 model=1 kW=2.0313586656693827 kvar=0.5942635047770736 Phases=1 yearly=com_kw_13386_pu

New Load.load_p1ulv9155_1 conn=wye bus1=p1ulv9155.1 kV=0.12 Vminpu=0.8 Vmaxpu=1.2 model=1 kW=5.503617962261267 kvar=0.25931014748492 Phases=1 yearly=com_kw_14123_pu

New Load.load_p1ulv9155_2 conn=wye bus1=p1ulv9155.2 kV=0.12 Vminpu=0.8 Vmaxpu=1.2 model=1 kW=5.503617962261267 kvar=0.25931014748492 Phases=1 yearly=com_kw_14123_pu

New Load.load_p1ulv9157 conn=wye bus1=p1ulv9157.1.2.3 kV=0.48 Vminpu=0.8 Vmaxpu=1.2 model=1 kW=37.06615996289137 kvar=0.636271427608 Phases=3 yearly=com_kw_14478_pu

New Load.load_p1ulv9158_1 conn=wye bus1=p1ulv9158.1 kV=0.12 Vminpu=0.8 Vmaxpu=1.2 model=1 kW=3.013000258801837 kvar=0.6644912672412583 Phases=1 yearly=com_kw_13887_pu

New Load.load_p1ulv9158_2 conn=wye bus1=p1ulv9158.2 kV=0.12 Vminpu=0.8 Vmaxpu=1.2 model=1 kW=3.013000258801837 kvar=0.6644912672412583 Phases=1 yearly=com_kw_13887_pu

New Load.load_p1ulv9159 conn=wye bus1=p1ulv9159.1.2.3 kV=0.48 Vminpu=0.8 Vmaxpu=1.2 model=1 kW=35.14166777710385 kvar=5.8038139413474426 Phases=3 yearly=com_kw_13056_pu

New Load.load_p1ulv9160 conn=wye bus1=p1ulv9159.1.2.3 kV=0.48 Vminpu=0.8 Vmaxpu=1.2 model=1 kW=201.5838769319976 kvar=11.080847245425444 Phases=3 yearly=com_kw_13461_pu

New Load.load_p1ulv10837 conn=wye bus1=p1ulv10837.1.2.3 kV=0.48 Vminpu=0.8 Vmaxpu=1.2 model=1 kW=41.27726434904335 kvar=10.826959957077602 Phases=3 yearly=com_kw_13682_pu

New Load.load_p1ulv10838 conn=wye bus1=p1ulv10838.1.2.3 kV=0.48 Vminpu=0.8 Vmaxpu=1.2 model=1 kW=33.8428709049581 kvar=10.34934485562638 Phases=3 yearly=com_kw_14626_pu

New Load.load_p1ulv10839 conn=wye bus1=p1ulv10839.1.2.3 kV=0.48 Vminpu=0.8 Vmaxpu=1.2 model=1 kW=65.48241523887258 kvar=17.91194958985878 Phases=3 yearly=com_kw_14859_pu

New Load.load_p1ulv10840 conn=wye bus1=p1ulv10840.1.2.3 kV=0.48 Vminpu=0.8 Vmaxpu=1.2 model=1 kW=34.95025902709327 kvar=12.584382652547053 Phases=3 yearly=com_kw_14942_pu

New Load.load_p1ulv10841 conn=wye bus1=p1ulv10840.1.2.3 kV=0.48 Vminpu=0.8 Vmaxpu=1.2 model=1 kW=20.3910576075888 kvar=5.163696871380699 Phases=3 yearly=com_kw_15153_pu

New Load.load_p1ulv10842 conn=wye bus1=p1ulv10842.1.2.3 kV=0.48 Vminpu=0.8 Vmaxpu=1.2 model=1 kW=22.79672155467097 kvar=9.378421783910337 Phases=3 yearly=com_kw_13732_pu

New Load.load_p1ulv10843 conn=wye bus1=p1ulv10843.1.2.3 kV=0.48 Vminpu=0.8 Vmaxpu=1.2 model=1 kW=49.5670825367442 kvar=13.310050323876105 Phases=3 yearly=com_kw_14353_pu

New Load.load_p1ulv10844_1 conn=wye bus1=p1ulv10844.1 kV=0.12 Vminpu=0.8 Vmaxpu=1.2 model=1 kW=4.081735511976485 kvar=0.9882394625849078 Phases=1 yearly=com_kw_14650_pu

New Load.load_p1ulv10844_2 conn=wye bus1=p1ulv10844.2 kV=0.12 Vminpu=0.8 Vmaxpu=1.2 model=1 kW=4.081735511976485 kvar=0.9882394625849078 Phases=1 yearly=com_kw_14650_pu

New Load.load_p1ulv10845_1 conn=wye bus1=p1ulv10845.1 kV=0.12 Vminpu=0.8 Vmaxpu=1.2 model=1 kW=4.081735511976485 kvar=0.9882394625849078 Phases=1 yearly=com_kw_14650_pu

New Load.load_p1ulv10845_2 conn=wye bus1=p1ulv10845.2 kV=0.12 Vminpu=0.8 Vmaxpu=1.2 model=1 kW=4.081735511976485 kvar=0.9882394625849078 Phases=1 yearly=com_kw_14650_pu

New Load.load_p1ulv10846_1 conn=wye bus1=p1ulv10846.1 kV=0.12 Vminpu=0.8 Vmaxpu=1.2 model=1 kW=3.0721844660900577 kvar=0.7060482494440881 Phases=1 yearly=com_kw_13303_pu

New Load.load_p1ulv10846_2 conn=wye bus1=p1ulv10846.2 kV=0.12 Vminpu=0.8 Vmaxpu=1.2 model=1 kW=3.0721844660900577 kvar=0.7060482494440881 Phases=1 yearly=com_kw_13303_pu

New Load.load_p1ulv10847_1 conn=wye bus1=p1ulv10847.1 kV=0.12 Vminpu=0.8 Vmaxpu=1.2 model=1 kW=3.0721844660900577 kvar=0.7060482494440881 Phases=1 yearly=com_kw_13303_pu

New Load.load_p1ulv10847_2 conn=wye bus1=p1ulv10847.2 kV=0.12 Vminpu=0.8 Vmaxpu=1.2 model=1 kW=3.0721844660900577 kvar=0.7060482494440881 Phases=1 yearly=com_kw_13303_pu

New Load.load_p1ulv10848_1 conn=wye bus1=p1ulv10848.1 kV=0.12 Vminpu=0.8 Vmaxpu=1.2 model=1 kW=7.838257818376183 kvar=1.7746998372735319 Phases=1 yearly=com_kw_12884_pu

New Load.load_p1ulv10848_2 conn=wye bus1=p1ulv10848.2 kV=0.12 Vminpu=0.8 Vmaxpu=1.2 model=1 kW=7.838257818376183 kvar=1.7746998372735319 Phases=1 yearly=com_kw_12884_pu

New Load.load_p1ulv10849_1 conn=wye bus1=p1ulv10849.1 kV=0.12 Vminpu=0.8 Vmaxpu=1.2 model=1 kW=8.189330617096166 kvar=1.820071367344977 Phases=1 yearly=com_kw_12975_pu

New Load.load_p1ulv10849_2 conn=wye bus1=p1ulv10849.2 kV=0.12 Vminpu=0.8 Vmaxpu=1.2 model=1 kW=8.189330617096166 kvar=1.820071367344977 Phases=1 yearly=com_kw_12975_pu

New Load.load_p1ulv10850_1 conn=wye bus1=p1ulv10850.1 kV=0.12 Vminpu=0.8 Vmaxpu=1.2 model=1 kW=8.189330617096166 kvar=1.820071367344977 Phases=1 yearly=com_kw_12975_pu

New Load.load_p1ulv10850_2 conn=wye bus1=p1ulv10850.2 kV=0.12 Vminpu=0.8 Vmaxpu=1.2 model=1 kW=8.189330617096166 kvar=1.820071367344977 Phases=1 yearly=com_kw_12975_pu

New Load.load_p1ulv10851_1 conn=wye bus1=p1ulv10851.1 kV=0.12 Vminpu=0.8 Vmaxpu=1.2 model=1 kW=5.777968789114468 kvar=0.5425823089827511 Phases=1 yearly=com_kw_15253_pu

New Load.load_p1ulv10851_2 conn=wye bus1=p1ulv10851.2 kV=0.12 Vminpu=0.8 Vmaxpu=1.2 model=1 kW=5.777968789114468 kvar=0.5425823089827511 Phases=1 yearly=com_kw_15253_pu

New Load.load_p1ulv10852 conn=wye bus1=p1ulv10852.1.2.3 kV=0.48 Vminpu=0.8 Vmaxpu=1.2 model=1 kW=20.3910576075888 kvar=5.163696871380699 Phases=3 yearly=com_kw_15153_pu

New Load.load_p1ulv10853 conn=wye bus1=p1ulv10852.1.2.3 kV=0.48 Vminpu=0.8 Vmaxpu=1.2 model=1 kW=52.92904493300925 kvar=13.39480714795076 Phases=3 yearly=com_kw_13010_pu

New Load.load_p1ulv10854 conn=wye bus1=p1ulv10854.1.2.3 kV=0.48 Vminpu=0.8 Vmaxpu=1.2 model=1 kW=359.6894358959385 kvar=105.981216307442 Phases=3 yearly=com_kw_12814_pu

New Load.load_p1ulv10855_1 conn=wye bus1=p1ulv10855.1 kV=0.12 Vminpu=0.8 Vmaxpu=1.2 model=1 kW=13.793674087523804 kvar=0.8506323916315093 Phases=1 yearly=com_kw_14989_pu

New Load.load_p1ulv10855_2 conn=wye bus1=p1ulv10855.2 kV=0.12 Vminpu=0.8 Vmaxpu=1.2 model=1 kW=13.793674087523804 kvar=0.8506323916315093 Phases=1 yearly=com_kw_14989_pu

New Load.load_p1ulv10856_1 conn=wye bus1=p1ulv10856.1 kV=0.12 Vminpu=0.8 Vmaxpu=1.2 model=1 kW=5.777968789114468 kvar=0.5425823089827511 Phases=1 yearly=com_kw_15253_pu

New Load.load_p1ulv10856_2 conn=wye bus1=p1ulv10856.2 kV=0.12 Vminpu=0.8 Vmaxpu=1.2 model=1 kW=5.777968789114468 kvar=0.5425823089827511 Phases=1 yearly=com_kw_15253_pu

New Load.load_p1ulv10857_1 conn=wye bus1=p1ulv10857.1 kV=0.12 Vminpu=0.8 Vmaxpu=1.2 model=1 kW=2.465496051676302 kvar=0.5881407747231531 Phases=1 yearly=com_kw_13121_pu

New Load.load_p1ulv10857_2 conn=wye bus1=p1ulv10857.2 kV=0.12 Vminpu=0.8 Vmaxpu=1.2 model=1 kW=2.465496051676302 kvar=0.5881407747231531 Phases=1 yearly=com_kw_13121_pu

New Load.load_p1ulv10858_1 conn=wye bus1=p1ulv10858.1 kV=0.12 Vminpu=0.8 Vmaxpu=1.2 model=1 kW=5.777968789114468 kvar=0.5425823089827511 Phases=1 yearly=com_kw_15253_pu

New Load.load_p1ulv10858_2 conn=wye bus1=p1ulv10858.2 kV=0.12 Vminpu=0.8 Vmaxpu=1.2 model=1 kW=5.777968789114468 kvar=0.5425823089827511 Phases=1 yearly=com_kw_15253_pu

New Load.load_p1ulv10859_1 conn=wye bus1=p1ulv10859.1 kV=0.12 Vminpu=0.8 Vmaxpu=1.2 model=1 kW=2.242446440461792 kvar=0.599196925582727 Phases=1 yearly=com_kw_14904_pu

New Load.load_p1ulv10859_2 conn=wye bus1=p1ulv10859.2 kV=0.12 Vminpu=0.8 Vmaxpu=1.2 model=1 kW=2.242446440461792 kvar=0.599196925582727 Phases=1 yearly=com_kw_14904_pu

New Load.load_p1ulv10860_1 conn=wye bus1=p1ulv10860.1 kV=0.12 Vminpu=0.8 Vmaxpu=1.2 model=1 kW=1.8775078991445364 kvar=0.511706884096551 Phases=1 yearly=com_kw_14932_pu

New Load.load_p1ulv10860_2 conn=wye bus1=p1ulv10860.2 kV=0.12 Vminpu=0.8 Vmaxpu=1.2 model=1 kW=1.8775078991445364 kvar=0.511706884096551 Phases=1 yearly=com_kw_14932_pu

New Load.load_p1ulv10861 conn=wye bus1=p1ulv10861.1.2.3 kV=0.48 Vminpu=0.8 Vmaxpu=1.2 model=1 kW=35.47904655844456 kvar=3.1514193734455604 Phases=3 yearly=com_kw_13231_pu

New Load.load_p1ulv10862 conn=wye bus1=p1ulv10862.1.2.3 kV=0.48 Vminpu=0.8 Vmaxpu=1.2 model=1 kW=64.92539657765779 kvar=4.368843772620719 Phases=3 yearly=com_kw_13868_pu

New Load.load_p1ulv10863_1 conn=wye bus1=p1ulv10863.1 kV=0.12 Vminpu=0.8 Vmaxpu=1.2 model=1 kW=7.904283676305736 kvar=2.30454106674724 Phases=1 yearly=com_kw_13123_pu

New Load.load_p1ulv10863_2 conn=wye bus1=p1ulv10863.2 kV=0.12 Vminpu=0.8 Vmaxpu=1.2 model=1 kW=7.904283676305736 kvar=2.30454106674724 Phases=1 yearly=com_kw_13123_pu

New Load.load_p1ulv10864 conn=wye bus1=p1ulv10864.1.2.3 kV=0.48 Vminpu=0.8 Vmaxpu=1.2 model=1 kW=20.3910576075888 kvar=5.163696871380699 Phases=3 yearly=com_kw_15153_pu

New Load.load_p1ulv10865 conn=wye bus1=p1ulv10865.1.2.3 kV=0.48 Vminpu=0.8 Vmaxpu=1.2 model=1 kW=25.30417501681602 kvar=7.179767776712684 Phases=3 yearly=com_kw_14809_pu

New Load.load_p1ulv10866_1 conn=wye bus1=p1ulv10866.1 kV=0.12 Vminpu=0.8 Vmaxpu=1.2 model=1 kW=4.081735511976485 kvar=0.9882394625849078 Phases=1 yearly=com_kw_14650_pu

New Load.load_p1ulv10866_2 conn=wye bus1=p1ulv10866.2 kV=0.12 Vminpu=0.8 Vmaxpu=1.2 model=1 kW=4.081735511976485 kvar=0.9882394625849078 Phases=1 yearly=com_kw_14650_pu

New Load.load_p1ulv10868 conn=wye bus1=p1ulv10868.1.2.3 kV=0.48 Vminpu=0.8 Vmaxpu=1.2 model=1 kW=44.63242253317529 kvar=10.097066849540786 Phases=3 yearly=com_kw_14665_pu

New Load.load_p1ulv10869 conn=wye bus1=p1ulv10869.1.2.3 kV=0.48 Vminpu=0.8 Vmaxpu=1.2 model=1 kW=154.0874288917998 kvar=45.092902932389926 Phases=3 yearly=com_kw_15210_pu

New Load.load_p1ulv10870 conn=wye bus1=p1ulv10870.1.2.3 kV=0.48 Vminpu=0.8 Vmaxpu=1.2 model=1 kW=158.69095860669978 kvar=48.23317350016857 Phases=3 yearly=com_kw_13777_pu

New Load.load_p1ulv10871 conn=wye bus1=p1ulv10870.1.2.3 kV=0.48 Vminpu=0.8 Vmaxpu=1.2 model=1 kW=26.90832966676847 kvar=7.659775812054249 Phases=3 yearly=com_kw_13379_pu

New Load.load_p1ulv10872 conn=wye bus1=p1ulv10872.1.2.3 kV=0.48 Vminpu=0.8 Vmaxpu=1.2 model=1 kW=36.50723669611415 kvar=5.711557870450742 Phases=3 yearly=com_kw_14802_pu

New Load.load_p1ulv10873 conn=wye bus1=p1ulv10872.1.2.3 kV=0.48 Vminpu=0.8 Vmaxpu=1.2 model=1 kW=36.50723669611415 kvar=5.711557870450742 Phases=3 yearly=com_kw_14802_pu

New Load.load_p1ulv10874 conn=wye bus1=p1ulv10874.1.2.3 kV=0.48 Vminpu=0.8 Vmaxpu=1.2 model=1 kW=139.8917722207126 kvar=6.109246877535022 Phases=3 yearly=com_kw_14536_pu

New Load.load_p1ulv10875 conn=wye bus1=p1ulv10875.1.2.3 kV=0.48 Vminpu=0.8 Vmaxpu=1.2 model=1 kW=286.03179723608065 kvar=85.29922637914186 Phases=3 yearly=com_kw_12976_pu

New Load.load_p1ulv10876_1 conn=wye bus1=p1ulv10876.1 kV=0.12 Vminpu=0.8 Vmaxpu=1.2 model=1 kW=9.358521499301396 kvar=0.9436008203397507 Phases=1 yearly=com_kw_12824_pu

New Load.load_p1ulv10876_2 conn=wye bus1=p1ulv10876.2 kV=0.12 Vminpu=0.8 Vmaxpu=1.2 model=1 kW=9.358521499301396 kvar=0.9436008203397507 Phases=1 yearly=com_kw_12824_pu

New Load.load_p1ulv10877 conn=wye bus1=p1ulv10877.1.2.3 kV=0.48 Vminpu=0.8 Vmaxpu=1.2 model=1 kW=36.4625269315931 kvar=11.519228571653503 Phases=3 yearly=com_kw_12847_pu

New Load.load_p1ulv10878 conn=wye bus1=p1ulv10878.1.2.3 kV=0.48 Vminpu=0.8 Vmaxpu=1.2 model=1 kW=175.53611988137737 kvar=58.81583165534615 Phases=3 yearly=com_kw_14787_pu

New Load.load_p1ulv10879 conn=wye bus1=p1ulv10879.1.2.3 kV=0.48 Vminpu=0.8 Vmaxpu=1.2 model=1 kW=47.91797841669134 kvar=15.127001754471541 Phases=3 yearly=com_kw_13043_pu

New Load.load_p1ulv10880 conn=wye bus1=p1ulv10880.1.2.3 kV=0.48 Vminpu=0.8 Vmaxpu=1.2 model=1 kW=48.66096613244451 kvar=3.699113882007498 Phases=3 yearly=com_kw_15022_pu

New Load.load_p1ulv10881_1 conn=wye bus1=p1ulv10881.1 kV=0.12 Vminpu=0.8 Vmaxpu=1.2 model=1 kW=6.555563478784488 kvar=2.0600364671073317 Phases=1 yearly=com_kw_14719_pu

New Load.load_p1ulv10881_2 conn=wye bus1=p1ulv10881.2 kV=0.12 Vminpu=0.8 Vmaxpu=1.2 model=1 kW=6.555563478784488 kvar=2.0600364671073317 Phases=1 yearly=com_kw_14719_pu

New Load.load_p1ulv10882 conn=wye bus1=p1ulv10880.1.2.3 kV=0.48 Vminpu=0.8 Vmaxpu=1.2 model=1 kW=253.16222139998118 kvar=18.868683832325765 Phases=3 yearly=com_kw_13891_pu

New Load.load_p1ulv11181_1 conn=wye bus1=p1ulv11181.1 kV=0.12 Vminpu=0.8 Vmaxpu=1.2 model=1 kW=3.4468581914223817 kvar=1.1411197390818253 Phases=1 yearly=res_kw_250_pu

New Load.load_p1ulv11181_2 conn=wye bus1=p1ulv11181.2 kV=0.12 Vminpu=0.8 Vmaxpu=1.2 model=1 kW=3.4468581914223817 kvar=1.1411197390818253 Phases=1 yearly=res_kw_250_pu

New Load.load_p1ulv11182_1 conn=wye bus1=p1ulv11182.1 kV=0.12 Vminpu=0.8 Vmaxpu=1.2 model=1 kW=5.866909996539198 kvar=1.7278302861049015 Phases=1 yearly=com_kw_14606_pu

New Load.load_p1ulv11182_2 conn=wye bus1=p1ulv11182.2 kV=0.12 Vminpu=0.8 Vmaxpu=1.2 model=1 kW=5.866909996539198 kvar=1.7278302861049015 Phases=1 yearly=com_kw_14606_pu

New Load.load_p1ulv11183_1 conn=wye bus1=p1ulv11183.1 kV=0.12 Vminpu=0.8 Vmaxpu=1.2 model=1 kW=7.7578735794910925 kvar=1.9049941012910125 Phases=1 yearly=res_kw_863_pu

New Load.load_p1ulv11183_2 conn=wye bus1=p1ulv11183.2 kV=0.12 Vminpu=0.8 Vmaxpu=1.2 model=1 kW=7.7578735794910925 kvar=1.9049941012910125 Phases=1 yearly=res_kw_863_pu

New Load.load_p1ulv11184_1 conn=wye bus1=p1ulv11184.1 kV=0.12 Vminpu=0.8 Vmaxpu=1.2 model=1 kW=15.527800434841444 kvar=4.308184462676511 Phases=1 yearly=res_kw_897_pu

New Load.load_p1ulv11184_2 conn=wye bus1=p1ulv11184.2 kV=0.12 Vminpu=0.8 Vmaxpu=1.2 model=1 kW=15.527800434841444 kvar=4.308184462676511 Phases=1 yearly=res_kw_897_pu

New Load.load_p1ulv11185_1 conn=wye bus1=p1ulv11185.1 kV=0.12 Vminpu=0.8 Vmaxpu=1.2 model=1 kW=4.4719654544990375 kvar=1.0992469987144322 Phases=1 yearly=res_kw_1157_pu

New Load.load_p1ulv11185_2 conn=wye bus1=p1ulv11185.2 kV=0.12 Vminpu=0.8 Vmaxpu=1.2 model=1 kW=4.4719654544990375 kvar=1.0992469987144322 Phases=1 yearly=res_kw_1157_pu

New Load.load_p1ulv11186_1 conn=wye bus1=p1ulv11186.1 kV=0.12 Vminpu=0.8 Vmaxpu=1.2 model=1 kW=11.506702661284509 kvar=3.22329926547824 Phases=1 yearly=res_kw_231_pu

New Load.load_p1ulv11186_2 conn=wye bus1=p1ulv11186.2 kV=0.12 Vminpu=0.8 Vmaxpu=1.2 model=1 kW=11.506702661284509 kvar=3.22329926547824 Phases=1 yearly=res_kw_231_pu

New Load.load_p1ulv11187 conn=wye bus1=p1ulv11187.1.2.3 kV=0.48 Vminpu=0.8 Vmaxpu=1.2 model=1 kW=54.45732187701472 kvar=12.011280237809785 Phases=3 yearly=res_kw_819_pu

New Load.load_p1ulv11188 conn=wye bus1=p1ulv11188.1.2.3 kV=0.48 Vminpu=0.8 Vmaxpu=1.2 model=1 kW=20.3910576075888 kvar=5.163696871380699 Phases=3 yearly=com_kw_15153_pu

New Load.load_p1ulv11189_1 conn=wye bus1=p1ulv11189.1 kV=0.12 Vminpu=0.8 Vmaxpu=1.2 model=1 kW=4.8861141847383 kvar=1.2417687859549835 Phases=1 yearly=res_kw_549_pu

New Load.load_p1ulv11189_2 conn=wye bus1=p1ulv11189.2 kV=0.12 Vminpu=0.8 Vmaxpu=1.2 model=1 kW=4.8861141847383 kvar=1.2417687859549835 Phases=1 yearly=res_kw_549_pu

New Load.load_p1ulv11190_1 conn=wye bus1=p1ulv11190.1 kV=0.12 Vminpu=0.8 Vmaxpu=1.2 model=1 kW=3.629714039262861 kvar=1.2034402112399032 Phases=1 yearly=res_kw_203_pu

New Load.load_p1ulv11190_2 conn=wye bus1=p1ulv11190.2 kV=0.12 Vminpu=0.8 Vmaxpu=1.2 model=1 kW=3.629714039262861 kvar=1.2034402112399032 Phases=1 yearly=res_kw_203_pu

New Load.load_p1ulv11191_1 conn=wye bus1=p1ulv11191.1 kV=0.12 Vminpu=0.8 Vmaxpu=1.2 model=1 kW=3.0502193323758338 kvar=0.7068547525403183 Phases=1 yearly=res_kw_407_pu

New Load.load_p1ulv11191_2 conn=wye bus1=p1ulv11191.2 kV=0.12 Vminpu=0.8 Vmaxpu=1.2 model=1 kW=3.0502193323758338 kvar=0.7068547525403183 Phases=1 yearly=res_kw_407_pu

New Load.load_p1ulv11192_1 conn=wye bus1=p1ulv11192.1 kV=0.12 Vminpu=0.8 Vmaxpu=1.2 model=1 kW=3.3701610259235064 kvar=1.065454990641787 Phases=1 yearly=res_kw_1037_pu

New Load.load_p1ulv11192_2 conn=wye bus1=p1ulv11192.2 kV=0.12 Vminpu=0.8 Vmaxpu=1.2 model=1 kW=3.3701610259235064 kvar=1.065454990641787 Phases=1 yearly=res_kw_1037_pu

New Load.load_p1ulv11193_1 conn=wye bus1=p1ulv11193.1 kV=0.12 Vminpu=0.8 Vmaxpu=1.2 model=1 kW=4.78815623948431 kvar=1.2110296754961107 Phases=1 yearly=res_kw_842_pu

New Load.load_p1ulv11193_2 conn=wye bus1=p1ulv11193.2 kV=0.12 Vminpu=0.8 Vmaxpu=1.2 model=1 kW=4.78815623948431 kvar=1.2110296754961107 Phases=1 yearly=res_kw_842_pu

New Load.load_p1ulv11194_1 conn=wye bus1=p1ulv11194.1 kV=0.12 Vminpu=0.8 Vmaxpu=1.2 model=1 kW=3.6844020253442458 kvar=1.4451491397155931 Phases=1 yearly=res_kw_1258_pu

New Load.load_p1ulv11194_2 conn=wye bus1=p1ulv11194.2 kV=0.12 Vminpu=0.8 Vmaxpu=1.2 model=1 kW=3.6844020253442458 kvar=1.4451491397155931 Phases=1 yearly=res_kw_1258_pu

New Load.load_p1ulv11195_1 conn=wye bus1=p1ulv11195.1 kV=0.12 Vminpu=0.8 Vmaxpu=1.2 model=1 kW=5.436729579526792 kvar=1.2488470964899614 Phases=1 yearly=res_kw_454_pu

New Load.load_p1ulv11195_2 conn=wye bus1=p1ulv11195.2 kV=0.12 Vminpu=0.8 Vmaxpu=1.2 model=1 kW=5.436729579526792 kvar=1.2488470964899614 Phases=1 yearly=res_kw_454_pu

New Load.load_p1ulv11196_1 conn=wye bus1=p1ulv11196.1 kV=0.12 Vminpu=0.8 Vmaxpu=1.2 model=1 kW=4.746269311492783 kvar=1.3210751032938461 Phases=1 yearly=res_kw_1080_pu

New Load.load_p1ulv11196_2 conn=wye bus1=p1ulv11196.2 kV=0.12 Vminpu=0.8 Vmaxpu=1.2 model=1 kW=4.746269311492783 kvar=1.3210751032938461 Phases=1 yearly=res_kw_1080_pu

New Load.load_p1ulv11197_1 conn=wye bus1=p1ulv11197.1 kV=0.12 Vminpu=0.8 Vmaxpu=1.2 model=1 kW=6.224817813202313 kvar=1.7553010009693135 Phases=1 yearly=res_kw_710_pu

New Load.load_p1ulv11197_2 conn=wye bus1=p1ulv11197.2 kV=0.12 Vminpu=0.8 Vmaxpu=1.2 model=1 kW=6.224817813202313 kvar=1.7553010009693135 Phases=1 yearly=res_kw_710_pu

New Load.load_p1ulv11198_1 conn=wye bus1=p1ulv11198.1 kV=0.12 Vminpu=0.8 Vmaxpu=1.2 model=1 kW=22.490493344802942 kvar=6.21075543593501 Phases=1 yearly=com_kw_13585_pu

New Load.load_p1ulv11198_2 conn=wye bus1=p1ulv11198.2 kV=0.12 Vminpu=0.8 Vmaxpu=1.2 model=1 kW=22.490493344802942 kvar=6.21075543593501 Phases=1 yearly=com_kw_13585_pu

New Load.load_p1ulv11199_1 conn=wye bus1=p1ulv11199.1 kV=0.12 Vminpu=0.8 Vmaxpu=1.2 model=1 kW=5.1496269559453545 kvar=1.5323145223091108 Phases=1 yearly=com_kw_14231_pu

New Load.load_p1ulv11199_2 conn=wye bus1=p1ulv11199.2 kV=0.12 Vminpu=0.8 Vmaxpu=1.2 model=1 kW=5.1496269559453545 kvar=1.5323145223091108 Phases=1 yearly=com_kw_14231_pu

New Load.load_p1ulv11200_1 conn=wye bus1=p1ulv11200.1 kV=0.12 Vminpu=0.8 Vmaxpu=1.2 model=1 kW=5.593814709601456 kvar=0.9267363329025571 Phases=1 yearly=res_kw_561_pu

New Load.load_p1ulv11200_2 conn=wye bus1=p1ulv11200.2 kV=0.12 Vminpu=0.8 Vmaxpu=1.2 model=1 kW=5.593814709601456 kvar=0.9267363329025571 Phases=1 yearly=res_kw_561_pu

New Load.load_p1ulv11201_1 conn=wye bus1=p1ulv11201.1 kV=0.12 Vminpu=0.8 Vmaxpu=1.2 model=1 kW=1.8636614682402992 kvar=0.5015179682387616 Phases=1 yearly=res_kw_532_pu

New Load.load_p1ulv11201_2 conn=wye bus1=p1ulv11201.2 kV=0.12 Vminpu=0.8 Vmaxpu=1.2 model=1 kW=1.8636614682402992 kvar=0.5015179682387616 Phases=1 yearly=res_kw_532_pu

New Load.load_p1ulv11202_1 conn=wye bus1=p1ulv11202.1 kV=0.12 Vminpu=0.8 Vmaxpu=1.2 model=1 kW=5.756929973442986 kvar=1.231792610114507 Phases=1 yearly=res_kw_339_pu

New Load.load_p1ulv11202_2 conn=wye bus1=p1ulv11202.2 kV=0.12 Vminpu=0.8 Vmaxpu=1.2 model=1 kW=5.756929973442986 kvar=1.231792610114507 Phases=1 yearly=res_kw_339_pu

New Load.load_p1ulv11203_1 conn=wye bus1=p1ulv11203.1 kV=0.12 Vminpu=0.8 Vmaxpu=1.2 model=1 kW=4.792624300749482 kvar=1.1139407265067676 Phases=1 yearly=res_kw_898_pu

New Load.load_p1ulv11203_2 conn=wye bus1=p1ulv11203.2 kV=0.12 Vminpu=0.8 Vmaxpu=1.2 model=1 kW=4.792624300749482 kvar=1.1139407265067676 Phases=1 yearly=res_kw_898_pu

New Load.load_p1ulv11204 conn=wye bus1=p1ulv11204.1.2.3 kV=0.48 Vminpu=0.8 Vmaxpu=1.2 model=1 kW=20.3910576075888 kvar=5.163696871380699 Phases=3 yearly=com_kw_15153_pu

New Load.load_p1ulv11205_1 conn=wye bus1=p1ulv11205.1 kV=0.12 Vminpu=0.8 Vmaxpu=1.2 model=1 kW=8.01962100453296 kvar=1.9011506674959975 Phases=1 yearly=res_kw_380_pu

New Load.load_p1ulv11205_2 conn=wye bus1=p1ulv11205.2 kV=0.12 Vminpu=0.8 Vmaxpu=1.2 model=1 kW=8.01962100453296 kvar=1.9011506674959975 Phases=1 yearly=res_kw_380_pu

New Load.load_p1ulv11206 conn=wye bus1=p1ulv11206.1.2.3 kV=0.48 Vminpu=0.8 Vmaxpu=1.2 model=1 kW=47.59652667986357 kvar=10.77578287060457 Phases=3 yearly=com_kw_13047_pu

New Load.load_p1ulv11207_1 conn=wye bus1=p1ulv11207.1 kV=0.12 Vminpu=0.8 Vmaxpu=1.2 model=1 kW=3.629714039262861 kvar=1.2034402112399032 Phases=1 yearly=res_kw_203_pu

New Load.load_p1ulv11207_2 conn=wye bus1=p1ulv11207.2 kV=0.12 Vminpu=0.8 Vmaxpu=1.2 model=1 kW=3.629714039262861 kvar=1.2034402112399032 Phases=1 yearly=res_kw_203_pu

New Load.load_p1ulv11260_1 conn=wye bus1=p1ulv11260.1 kV=0.12 Vminpu=0.8 Vmaxpu=1.2 model=1 kW=4.198936522204728 kvar=0.9501139000968819 Phases=1 yearly=res_kw_229_pu

New Load.load_p1ulv11260_2 conn=wye bus1=p1ulv11260.2 kV=0.12 Vminpu=0.8 Vmaxpu=1.2 model=1 kW=4.198936522204728 kvar=0.9501139000968819 Phases=1 yearly=res_kw_229_pu

New Load.load_p1ulv11271_1 conn=wye bus1=p1ulv11271.1 kV=0.12 Vminpu=0.8 Vmaxpu=1.2 model=1 kW=5.436729579526792 kvar=1.2488470964899614 Phases=1 yearly=res_kw_454_pu
