New Load.load_p1ulv1718_1 conn=wye bus1=p1ulv1718.1 kV=0.12 Vminpu=0.8 Vmaxpu=1.2 model=1 kW=3.8748715750127736 kvar=1.5614372175332516 Phases=1 yearly=res_kw_517_pu

New Load.load_p1ulv1718_2 conn=wye bus1=p1ulv1718.2 kV=0.12 Vminpu=0.8 Vmaxpu=1.2 model=1 kW=3.8748715750127736 kvar=1.5614372175332516 Phases=1 yearly=res_kw_517_pu

New Load.load_p1ulv1719_1 conn=wye bus1=p1ulv1719.1 kV=0.12 Vminpu=0.8 Vmaxpu=1.2 model=1 kW=4.8861141847383 kvar=1.2417687859549835 Phases=1 yearly=res_kw_549_pu

New Load.load_p1ulv1719_2 conn=wye bus1=p1ulv1719.2 kV=0.12 Vminpu=0.8 Vmaxpu=1.2 model=1 kW=4.8861141847383 kvar=1.2417687859549835 Phases=1 yearly=res_kw_549_pu

New Load.load_p1ulv1720_1 conn=wye bus1=p1ulv1720.1 kV=0.12 Vminpu=0.8 Vmaxpu=1.2 model=1 kW=4.359410160991208 kvar=0.7703346328307125 Phases=1 yearly=res_kw_470_pu

New Load.load_p1ulv1720_2 conn=wye bus1=p1ulv1720.2 kV=0.12 Vminpu=0.8 Vmaxpu=1.2 model=1 kW=4.359410160991208 kvar=0.7703346328307125 Phases=1 yearly=res_kw_470_pu

New Load.load_p1ulv1721_1 conn=wye bus1=p1ulv1721.1 kV=0.12 Vminpu=0.8 Vmaxpu=1.2 model=1 kW=8.002510293265328 kvar=1.3147667835887125 Phases=1 yearly=res_kw_932_pu

New Load.load_p1ulv1721_2 conn=wye bus1=p1ulv1721.2 kV=0.12 Vminpu=0.8 Vmaxpu=1.2 model=1 kW=8.002510293265328 kvar=1.3147667835887125 Phases=1 yearly=res_kw_932_pu

New Load.load_p1ulv1722_1 conn=wye bus1=p1ulv1722.1 kV=0.12 Vminpu=0.8 Vmaxpu=1.2 model=1 kW=2.40000228705824 kvar=1.0173787262529668 Phases=1 yearly=res_kw_1205_pu

New Load.load_p1ulv1722_2 conn=wye bus1=p1ulv1722.2 kV=0.12 Vminpu=0.8 Vmaxpu=1.2 model=1 kW=2.40000228705824 kvar=1.0173787262529668 Phases=1 yearly=res_kw_1205_pu

New Load.load_p1ulv1723_1 conn=wye bus1=p1ulv1723.1 kV=0.12 Vminpu=0.8 Vmaxpu=1.2 model=1 kW=7.7578735794910925 kvar=1.9049941012910125 Phases=1 yearly=res_kw_863_pu

New Load.load_p1ulv1723_2 conn=wye bus1=p1ulv1723.2 kV=0.12 Vminpu=0.8 Vmaxpu=1.2 model=1 kW=7.7578735794910925 kvar=1.9049941012910125 Phases=1 yearly=res_kw_863_pu

New Load.load_p1ulv1724_1 conn=wye bus1=p1ulv1724.1 kV=0.12 Vminpu=0.8 Vmaxpu=1.2 model=1 kW=4.8861141847383 kvar=1.2417687859549835 Phases=1 yearly=res_kw_549_pu

New Load.load_p1ulv1724_2 conn=wye bus1=p1ulv1724.2 kV=0.12 Vminpu=0.8 Vmaxpu=1.2 model=1 kW=4.8861141847383 kvar=1.2417687859549835 Phases=1 yearly=res_kw_549_pu

New Load.load_p1ulv1725_1 conn=wye bus1=p1ulv1725.1 kV=0.12 Vminpu=0.8 Vmaxpu=1.2 model=1 kW=5.474205814350271 kvar=1.42655615644843 Phases=1 yearly=res_kw_616_pu

New Load.load_p1ulv1725_2 conn=wye bus1=p1ulv1725.2 kV=0.12 Vminpu=0.8 Vmaxpu=1.2 model=1 kW=5.474205814350271 kvar=1.42655615644843 Phases=1 yearly=res_kw_616_pu

New Load.load_p1ulv1726_1 conn=wye bus1=p1ulv1726.1 kV=0.12 Vminpu=0.8 Vmaxpu=1.2 model=1 kW=4.8861141847383 kvar=1.2417687859549835 Phases=1 yearly=res_kw_549_pu

New Load.load_p1ulv1726_2 conn=wye bus1=p1ulv1726.2 kV=0.12 Vminpu=0.8 Vmaxpu=1.2 model=1 kW=4.8861141847383 kvar=1.2417687859549835 Phases=1 yearly=res_kw_549_pu

New Load.load_p1ulv1727_1 conn=wye bus1=p1ulv1727.1 kV=0.12 Vminpu=0.8 Vmaxpu=1.2 model=1 kW=2.40000228705824 kvar=1.0173787262529668 Phases=1 yearly=res_kw_1205_pu

New Load.load_p1ulv1727_2 conn=wye bus1=p1ulv1727.2 kV=0.12 Vminpu=0.8 Vmaxpu=1.2 model=1 kW=2.40000228705824 kvar=1.0173787262529668 Phases=1 yearly=res_kw_1205_pu

New Load.load_p1ulv1728_1 conn=wye bus1=p1ulv1728.1 kV=0.12 Vminpu=0.8 Vmaxpu=1.2 model=1 kW=11.457721527492426 kvar=1.3801854390555242 Phases=1 yearly=res_kw_861_pu

New Load.load_p1ulv1728_2 conn=wye bus1=p1ulv1728.2 kV=0.12 Vminpu=0.8 Vmaxpu=1.2 model=1 kW=11.457721527492426 kvar=1.3801854390555242 Phases=1 yearly=res_kw_861_pu

New Load.load_p1ulv1729_1 conn=wye bus1=p1ulv1729.1 kV=0.12 Vminpu=0.8 Vmaxpu=1.2 model=1 kW=3.308494316062581 kvar=0.7969773391329138 Phases=1 yearly=res_kw_626_pu

New Load.load_p1ulv1729_2 conn=wye bus1=p1ulv1729.2 kV=0.12 Vminpu=0.8 Vmaxpu=1.2 model=1 kW=3.308494316062581 kvar=0.7969773391329138 Phases=1 yearly=res_kw_626_pu

New Load.load_p1ulv1730_1 conn=wye bus1=p1ulv1730.1 kV=0.12 Vminpu=0.8 Vmaxpu=1.2 model=1 kW=5.4620434936401745 kvar=1.105790599538884 Phases=1 yearly=res_kw_1174_pu

New Load.load_p1ulv1730_2 conn=wye bus1=p1ulv1730.2 kV=0.12 Vminpu=0.8 Vmaxpu=1.2 model=1 kW=5.4620434936401745 kvar=1.105790599538884 Phases=1 yearly=res_kw_1174_pu

New Load.load_p1ulv1731_1 conn=wye bus1=p1ulv1731.1 kV=0.12 Vminpu=0.8 Vmaxpu=1.2 model=1 kW=5.991917116566147 kvar=1.6692124001399427 Phases=1 yearly=res_kw_314_pu

New Load.load_p1ulv1731_2 conn=wye bus1=p1ulv1731.2 kV=0.12 Vminpu=0.8 Vmaxpu=1.2 model=1 kW=5.991917116566147 kvar=1.6692124001399427 Phases=1 yearly=res_kw_314_pu

New Load.load_p1ulv1732_1 conn=wye bus1=p1ulv1732.1 kV=0.12 Vminpu=0.8 Vmaxpu=1.2 model=1 kW=7.7578735794910925 kvar=1.9049941012910125 Phases=1 yearly=res_kw_863_pu

New Load.load_p1ulv1732_2 conn=wye bus1=p1ulv1732.2 kV=0.12 Vminpu=0.8 Vmaxpu=1.2 model=1 kW=7.7578735794910925 kvar=1.9049941012910125 Phases=1 yearly=res_kw_863_pu

New Load.load_p1ulv1733_1 conn=wye bus1=p1ulv1733.1 kV=0.12 Vminpu=0.8 Vmaxpu=1.2 model=1 kW=2.6241521841182514 kvar=0.8429304779950015 Phases=1 yearly=res_kw_33_pu

New Load.load_p1ulv1733_2 conn=wye bus1=p1ulv1733.2 kV=0.12 Vminpu=0.8 Vmaxpu=1.2 model=1 kW=2.6241521841182514 kvar=0.8429304779950015 Phases=1 yearly=res_kw_33_pu

New Load.load_p1ulv1734_1 conn=wye bus1=p1ulv1734.1 kV=0.12 Vminpu=0.8 Vmaxpu=1.2 model=1 kW=5.436729579526792 kvar=1.2488470964899614 Phases=1 yearly=res_kw_454_pu

New Load.load_p1ulv1734_2 conn=wye bus1=p1ulv1734.2 kV=0.12 Vminpu=0.8 Vmaxpu=1.2 model=1 kW=5.436729579526792 kvar=1.2488470964899614 Phases=1 yearly=res_kw_454_pu

New Load.load_p1ulv1735_1 conn=wye bus1=p1ulv1735.1 kV=0.12 Vminpu=0.8 Vmaxpu=1.2 model=1 kW=11.519913645766726 kvar=1.865620446374389 Phases=1 yearly=res_kw_754_pu

New Load.load_p1ulv1735_2 conn=wye bus1=p1ulv1735.2 kV=0.12 Vminpu=0.8 Vmaxpu=1.2 model=1 kW=11.519913645766726 kvar=1.865620446374389 Phases=1 yearly=res_kw_754_pu

New Load.load_p1ulv1736_1 conn=wye bus1=p1ulv1736.1 kV=0.12 Vminpu=0.8 Vmaxpu=1.2 model=1 kW=11.457721527492426 kvar=1.3801854390555242 Phases=1 yearly=res_kw_861_pu

New Load.load_p1ulv1736_2 conn=wye bus1=p1ulv1736.2 kV=0.12 Vminpu=0.8 Vmaxpu=1.2 model=1 kW=11.457721527492426 kvar=1.3801854390555242 Phases=1 yearly=res_kw_861_pu

New Load.load_p1ulv1737_1 conn=wye bus1=p1ulv1737.1 kV=0.12 Vminpu=0.8 Vmaxpu=1.2 model=1 kW=7.259772519581312 kvar=1.3210086815250959 Phases=1 yearly=res_kw_128_pu

New Load.load_p1ulv1737_2 conn=wye bus1=p1ulv1737.2 kV=0.12 Vminpu=0.8 Vmaxpu=1.2 model=1 kW=7.259772519581312 kvar=1.3210086815250959 Phases=1 yearly=res_kw_128_pu

New Load.load_p1ulv1738_1 conn=wye bus1=p1ulv1738.1 kV=0.12 Vminpu=0.8 Vmaxpu=1.2 model=1 kW=3.8748715750127736 kvar=1.5614372175332516 Phases=1 yearly=res_kw_517_pu

New Load.load_p1ulv1738_2 conn=wye bus1=p1ulv1738.2 kV=0.12 Vminpu=0.8 Vmaxpu=1.2 model=1 kW=3.8748715750127736 kvar=1.5614372175332516 Phases=1 yearly=res_kw_517_pu

New Load.load_p1ulv1739_1 conn=wye bus1=p1ulv1739.1 kV=0.12 Vminpu=0.8 Vmaxpu=1.2 model=1 kW=5.7981206415948625 kvar=1.408328470231474 Phases=1 yearly=res_kw_995_pu

New Load.load_p1ulv1739_2 conn=wye bus1=p1ulv1739.2 kV=0.12 Vminpu=0.8 Vmaxpu=1.2 model=1 kW=5.7981206415948625 kvar=1.408328470231474 Phases=1 yearly=res_kw_995_pu

New Load.load_p1ulv1740_1 conn=wye bus1=p1ulv1740.1 kV=0.12 Vminpu=0.8 Vmaxpu=1.2 model=1 kW=2.8808589162778904 kvar=0.2835073949750637 Phases=1 yearly=res_kw_1036_pu

New Load.load_p1ulv1740_2 conn=wye bus1=p1ulv1740.2 kV=0.12 Vminpu=0.8 Vmaxpu=1.2 model=1 kW=2.8808589162778904 kvar=0.2835073949750637 Phases=1 yearly=res_kw_1036_pu

New Load.load_p1ulv1741_1 conn=wye bus1=p1ulv1741.1 kV=0.12 Vminpu=0.8 Vmaxpu=1.2 model=1 kW=10.375628907780863 kvar=4.616486224330442 Phases=1 yearly=res_kw_1267_pu

New Load.load_p1ulv1741_2 conn=wye bus1=p1ulv1741.2 kV=0.12 Vminpu=0.8 Vmaxpu=1.2 model=1 kW=10.375628907780863 kvar=4.616486224330442 Phases=1 yearly=res_kw_1267_pu

New Load.load_p1ulv1742_1 conn=wye bus1=p1ulv1742.1 kV=0.12 Vminpu=0.8 Vmaxpu=1.2 model=1 kW=5.927737313300522 kvar=2.018482424064332 Phases=1 yearly=res_kw_38_pu

New Load.load_p1ulv1742_2 conn=wye bus1=p1ulv1742.2 kV=0.12 Vminpu=0.8 Vmaxpu=1.2 model=1 kW=5.927737313300522 kvar=2.018482424064332 Phases=1 yearly=res_kw_38_pu

New Load.load_p1ulv1743_1 conn=wye bus1=p1ulv1743.1 kV=0.12 Vminpu=0.8 Vmaxpu=1.2 model=1 kW=5.436729579526792 kvar=1.2488470964899614 Phases=1 yearly=res_kw_454_pu

New Load.load_p1ulv1743_2 conn=wye bus1=p1ulv1743.2 kV=0.12 Vminpu=0.8 Vmaxpu=1.2 model=1 kW=5.436729579526792 kvar=1.2488470964899614 Phases=1 yearly=res_kw_454_pu

New Load.load_p1ulv1744_1 conn=wye bus1=p1ulv1744.1 kV=0.12 Vminpu=0.8 Vmaxpu=1.2 model=1 kW=5.723135606665604 kvar=1.5038194991101048 Phases=1 yearly=res_kw_1228_pu

New Load.load_p1ulv1744_2 conn=wye bus1=p1ulv1744.2 kV=0.12 Vminpu=0.8 Vmaxpu=1.2 model=1 kW=5.723135606665604 kvar=1.5038194991101048 Phases=1 yearly=res_kw_1228_pu

New Load.load_p1ulv1745_1 conn=wye bus1=p1ulv1745.1 kV=0.12 Vminpu=0.8 Vmaxpu=1.2 model=1 kW=6.294621884355657 kvar=1.2961288323966025 Phases=1 yearly=res_kw_689_pu

New Load.load_p1ulv1745_2 conn=wye bus1=p1ulv1745.2 kV=0.12 Vminpu=0.8 Vmaxpu=1.2 model=1 kW=6.294621884355657 kvar=1.2961288323966025 Phases=1 yearly=res_kw_689_pu

New Load.load_p1ulv1746_1 conn=wye bus1=p1ulv1746.1 kV=0.12 Vminpu=0.8 Vmaxpu=1.2 model=1 kW=3.8748715750127736 kvar=1.5614372175332516 Phases=1 yearly=res_kw_517_pu

New Load.load_p1ulv1746_2 conn=wye bus1=p1ulv1746.2 kV=0.12 Vminpu=0.8 Vmaxpu=1.2 model=1 kW=3.8748715750127736 kvar=1.5614372175332516 Phases=1 yearly=res_kw_517_pu

New Load.load_p1ulv1747_1 conn=wye bus1=p1ulv1747.1 kV=0.12 Vminpu=0.8 Vmaxpu=1.2 model=1 kW=5.927737313300522 kvar=2.018482424064332 Phases=1 yearly=res_kw_38_pu

New Load.load_p1ulv1747_2 conn=wye bus1=p1ulv1747.2 kV=0.12 Vminpu=0.8 Vmaxpu=1.2 model=1 kW=5.927737313300522 kvar=2.018482424064332 Phases=1 yearly=res_kw_38_pu

New Load.load_p1ulv1748_1 conn=wye bus1=p1ulv1748.1 kV=0.12 Vminpu=0.8 Vmaxpu=1.2 model=1 kW=5.436729579526792 kvar=1.2488470964899614 Phases=1 yearly=res_kw_454_pu

New Load.load_p1ulv1748_2 conn=wye bus1=p1ulv1748.2 kV=0.12 Vminpu=0.8 Vmaxpu=1.2 model=1 kW=5.436729579526792 kvar=1.2488470964899614 Phases=1 yearly=res_kw_454_pu

New Load.load_p1ulv1749_1 conn=wye bus1=p1ulv1749.1 kV=0.12 Vminpu=0.8 Vmaxpu=1.2 model=1 kW=3.4468581914223817 kvar=1.1411197390818253 Phases=1 yearly=res_kw_250_pu

New Load.load_p1ulv1749_2 conn=wye bus1=p1ulv1749.2 kV=0.12 Vminpu=0.8 Vmaxpu=1.2 model=1 kW=3.4468581914223817 kvar=1.1411197390818253 Phases=1 yearly=res_kw_250_pu

New Load.load_p1ulv1750_1 conn=wye bus1=p1ulv1750.1 kV=0.12 Vminpu=0.8 Vmaxpu=1.2 model=1 kW=3.8748715750127736 kvar=1.5614372175332516 Phases=1 yearly=res_kw_517_pu

New Load.load_p1ulv1750_2 conn=wye bus1=p1ulv1750.2 kV=0.12 Vminpu=0.8 Vmaxpu=1.2 model=1 kW=3.8748715750127736 kvar=1.5614372175332516 Phases=1 yearly=res_kw_517_pu

New Load.load_p1ulv1751_1 conn=wye bus1=p1ulv1751.1 kV=0.12 Vminpu=0.8 Vmaxpu=1.2 model=1 kW=4.78815623948431 kvar=1.2110296754961107 Phases=1 yearly=res_kw_842_pu

New Load.load_p1ulv1751_2 conn=wye bus1=p1ulv1751.2 kV=0.12 Vminpu=0.8 Vmaxpu=1.2 model=1 kW=4.78815623948431 kvar=1.2110296754961107 Phases=1 yearly=res_kw_842_pu

New Load.load_p1ulv1752_1 conn=wye bus1=p1ulv1752.1 kV=0.12 Vminpu=0.8 Vmaxpu=1.2 model=1 kW=3.6844020253442458 kvar=1.4451491397155931 Phases=1 yearly=res_kw_1258_pu

New Load.load_p1ulv1752_2 conn=wye bus1=p1ulv1752.2 kV=0.12 Vminpu=0.8 Vmaxpu=1.2 model=1 kW=3.6844020253442458 kvar=1.4451491397155931 Phases=1 yearly=res_kw_1258_pu

New Load.load_p1ulv1753_1 conn=wye bus1=p1ulv1753.1 kV=0.12 Vminpu=0.8 Vmaxpu=1.2 model=1 kW=2.40000228705824 kvar=1.0173787262529668 Phases=1 yearly=res_kw_1205_pu

New Load.load_p1ulv1753_2 conn=wye bus1=p1ulv1753.2 kV=0.12 Vminpu=0.8 Vmaxpu=1.2 model=1 kW=2.40000228705824 kvar=1.0173787262529668 Phases=1 yearly=res_kw_1205_pu

New Load.load_p1ulv1754_1 conn=wye bus1=p1ulv1754.1 kV=0.12 Vminpu=0.8 Vmaxpu=1.2 model=1 kW=2.916803644387601 kvar=0.11499518252231355 Phases=1 yearly=res_kw_1094_pu

New Load.load_p1ulv1754_2 conn=wye bus1=p1ulv1754.2 kV=0.12 Vminpu=0.8 Vmaxpu=1.2 model=1 kW=2.916803644387601 kvar=0.11499518252231355 Phases=1 yearly=res_kw_1094_pu

New Load.load_p1ulv1755_1 conn=wye bus1=p1ulv1755.1 kV=0.12 Vminpu=0.8 Vmaxpu=1.2 model=1 kW=4.889402611994926 kvar=1.0559288347164948 Phases=1 yearly=res_kw_1160_pu

New Load.load_p1ulv1755_2 conn=wye bus1=p1ulv1755.2 kV=0.12 Vminpu=0.8 Vmaxpu=1.2 model=1 kW=4.889402611994926 kvar=1.0559288347164948 Phases=1 yearly=res_kw_1160_pu

New Load.load_p1ulv1756_1 conn=wye bus1=p1ulv1756.1 kV=0.12 Vminpu=0.8 Vmaxpu=1.2 model=1 kW=8.252260942121131 kvar=1.0100409923226146 Phases=1 yearly=res_kw_401_pu

New Load.load_p1ulv1756_2 conn=wye bus1=p1ulv1756.2 kV=0.12 Vminpu=0.8 Vmaxpu=1.2 model=1 kW=8.252260942121131 kvar=1.0100409923226146 Phases=1 yearly=res_kw_401_pu

New Load.load_p1ulv1757_1 conn=wye bus1=p1ulv1757.1 kV=0.12 Vminpu=0.8 Vmaxpu=1.2 model=1 kW=2.40000228705824 kvar=1.0173787262529668 Phases=1 yearly=res_kw_1205_pu

New Load.load_p1ulv1757_2 conn=wye bus1=p1ulv1757.2 kV=0.12 Vminpu=0.8 Vmaxpu=1.2 model=1 kW=2.40000228705824 kvar=1.0173787262529668 Phases=1 yearly=res_kw_1205_pu

New Load.load_p1ulv1758_1 conn=wye bus1=p1ulv1758.1 kV=0.12 Vminpu=0.8 Vmaxpu=1.2 model=1 kW=9.666699253995569 kvar=2.090221480167897 Phases=1 yearly=res_kw_46_pu

New Load.load_p1ulv1758_2 conn=wye bus1=p1ulv1758.2 kV=0.12 Vminpu=0.8 Vmaxpu=1.2 model=1 kW=9.666699253995569 kvar=2.090221480167897 Phases=1 yearly=res_kw_46_pu

New Load.load_p1ulv1759_1 conn=wye bus1=p1ulv1759.1 kV=0.12 Vminpu=0.8 Vmaxpu=1.2 model=1 kW=14.404204781856079 kvar=3.036808033672637 Phases=1 yearly=res_kw_560_pu

New Load.load_p1ulv1759_2 conn=wye bus1=p1ulv1759.2 kV=0.12 Vminpu=0.8 Vmaxpu=1.2 model=1 kW=14.404204781856079 kvar=3.036808033672637 Phases=1 yearly=res_kw_560_pu

New Load.load_p1ulv1760_1 conn=wye bus1=p1ulv1760.1 kV=0.12 Vminpu=0.8 Vmaxpu=1.2 model=1 kW=14.404204781856079 kvar=3.036808033672637 Phases=1 yearly=res_kw_560_pu

New Load.load_p1ulv1760_2 conn=wye bus1=p1ulv1760.2 kV=0.12 Vminpu=0.8 Vmaxpu=1.2 model=1 kW=14.404204781856079 kvar=3.036808033672637 Phases=1 yearly=res_kw_560_pu

New Load.load_p1ulv1761_1 conn=wye bus1=p1ulv1761.1 kV=0.12 Vminpu=0.8 Vmaxpu=1.2 model=1 kW=5.436729579526792 kvar=1.2488470964899614 Phases=1 yearly=res_kw_454_pu

New Load.load_p1ulv1761_2 conn=wye bus1=p1ulv1761.2 kV=0.12 Vminpu=0.8 Vmaxpu=1.2 model=1 kW=5.436729579526792 kvar=1.2488470964899614 Phases=1 yearly=res_kw_454_pu

New Load.load_p1ulv1762_1 conn=wye bus1=p1ulv1762.1 kV=0.12 Vminpu=0.8 Vmaxpu=1.2 model=1 kW=3.164583099562732 kvar=0.44489249768713146 Phases=1 yearly=res_kw_184_pu

New Load.load_p1ulv1762_2 conn=wye bus1=p1ulv1762.2 kV=0.12 Vminpu=0.8 Vmaxpu=1.2 model=1 kW=3.164583099562732 kvar=0.44489249768713146 Phases=1 yearly=res_kw_184_pu

New Load.load_p1ulv1763_1 conn=wye bus1=p1ulv1763.1 kV=0.12 Vminpu=0.8 Vmaxpu=1.2 model=1 kW=3.963001053413761 kvar=0.9410786890170905 Phases=1 yearly=res_kw_1256_pu

New Load.load_p1ulv1763_2 conn=wye bus1=p1ulv1763.2 kV=0.12 Vminpu=0.8 Vmaxpu=1.2 model=1 kW=3.963001053413761 kvar=0.9410786890170905 Phases=1 yearly=res_kw_1256_pu

New Load.load_p1ulv1764_1 conn=wye bus1=p1ulv1764.1 kV=0.12 Vminpu=0.8 Vmaxpu=1.2 model=1 kW=5.756929973442986 kvar=1.231792610114507 Phases=1 yearly=res_kw_339_pu

New Load.load_p1ulv1764_2 conn=wye bus1=p1ulv1764.2 kV=0.12 Vminpu=0.8 Vmaxpu=1.2 model=1 kW=5.756929973442986 kvar=1.231792610114507 Phases=1 yearly=res_kw_339_pu

New Load.load_p1ulv1765_1 conn=wye bus1=p1ulv1765.1 kV=0.12 Vminpu=0.8 Vmaxpu=1.2 model=1 kW=4.666080754031652 kvar=0.9704814918535188 Phases=1 yearly=res_kw_280_pu

New Load.load_p1ulv1765_2 conn=wye bus1=p1ulv1765.2 kV=0.12 Vminpu=0.8 Vmaxpu=1.2 model=1 kW=4.666080754031652 kvar=0.9704814918535188 Phases=1 yearly=res_kw_280_pu

New Load.load_p1ulv1766_1 conn=wye bus1=p1ulv1766.1 kV=0.12 Vminpu=0.8 Vmaxpu=1.2 model=1 kW=2.6241521841182514 kvar=0.8429304779950015 Phases=1 yearly=res_kw_33_pu

New Load.load_p1ulv1766_2 conn=wye bus1=p1ulv1766.2 kV=0.12 Vminpu=0.8 Vmaxpu=1.2 model=1 kW=2.6241521841182514 kvar=0.8429304779950015 Phases=1 yearly=res_kw_33_pu

New Load.load_p1ulv1767_1 conn=wye bus1=p1ulv1767.1 kV=0.12 Vminpu=0.8 Vmaxpu=1.2 model=1 kW=7.259772519581312 kvar=1.3210086815250959 Phases=1 yearly=res_kw_128_pu

New Load.load_p1ulv1767_2 conn=wye bus1=p1ulv1767.2 kV=0.12 Vminpu=0.8 Vmaxpu=1.2 model=1 kW=7.259772519581312 kvar=1.3210086815250959 Phases=1 yearly=res_kw_128_pu

New Load.load_p1ulv1768_1 conn=wye bus1=p1ulv1768.1 kV=0.12 Vminpu=0.8 Vmaxpu=1.2 model=1 kW=3.0349278195989244 kvar=0.5508172290988972 Phases=1 yearly=res_kw_1112_pu

New Load.load_p1ulv1768_2 conn=wye bus1=p1ulv1768.2 kV=0.12 Vminpu=0.8 Vmaxpu=1.2 model=1 kW=3.0349278195989244 kvar=0.5508172290988972 Phases=1 yearly=res_kw_1112_pu

New Load.load_p1ulv1769_1 conn=wye bus1=p1ulv1769.1 kV=0.12 Vminpu=0.8 Vmaxpu=1.2 model=1 kW=4.8861141847383 kvar=1.2417687859549835 Phases=1 yearly=res_kw_549_pu

New Load.load_p1ulv1769_2 conn=wye bus1=p1ulv1769.2 kV=0.12 Vminpu=0.8 Vmaxpu=1.2 model=1 kW=4.8861141847383 kvar=1.2417687859549835 Phases=1 yearly=res_kw_549_pu

New Load.load_p1ulv1770_1 conn=wye bus1=p1ulv1770.1 kV=0.12 Vminpu=0.8 Vmaxpu=1.2 model=1 kW=5.436729579526792 kvar=1.2488470964899614 Phases=1 yearly=res_kw_454_pu

New Load.load_p1ulv1770_2 conn=wye bus1=p1ulv1770.2 kV=0.12 Vminpu=0.8 Vmaxpu=1.2 model=1 kW=5.436729579526792 kvar=1.2488470964899614 Phases=1 yearly=res_kw_454_pu

New Load.load_p1ulv1771_1 conn=wye bus1=p1ulv1771.1 kV=0.12 Vminpu=0.8 Vmaxpu=1.2 model=1 kW=6.139488924452324 kvar=1.0282575631325632 Phases=1 yearly=res_kw_421_pu

New Load.load_p1ulv1771_2 conn=wye bus1=p1ulv1771.2 kV=0.12 Vminpu=0.8 Vmaxpu=1.2 model=1 kW=6.139488924452324 kvar=1.0282575631325632 Phases=1 yearly=res_kw_421_pu

New Load.load_p1ulv1772_1 conn=wye bus1=p1ulv1772.1 kV=0.12 Vminpu=0.8 Vmaxpu=1.2 model=1 kW=11.457721527492426 kvar=1.3801854390555242 Phases=1 yearly=res_kw_861_pu

New Load.load_p1ulv1772_2 conn=wye bus1=p1ulv1772.2 kV=0.12 Vminpu=0.8 Vmaxpu=1.2 model=1 kW=11.457721527492426 kvar=1.3801854390555242 Phases=1 yearly=res_kw_861_pu

New Load.load_p1ulv1773_1 conn=wye bus1=p1ulv1773.1 kV=0.12 Vminpu=0.8 Vmaxpu=1.2 model=1 kW=3.8748715750127736 kvar=1.5614372175332516 Phases=1 yearly=res_kw_517_pu

New Load.load_p1ulv1773_2 conn=wye bus1=p1ulv1773.2 kV=0.12 Vminpu=0.8 Vmaxpu=1.2 model=1 kW=3.8748715750127736 kvar=1.5614372175332516 Phases=1 yearly=res_kw_517_pu

New Load.load_p1ulv1774_1 conn=wye bus1=p1ulv1774.1 kV=0.12 Vminpu=0.8 Vmaxpu=1.2 model=1 kW=3.8748715750127736 kvar=1.5614372175332516 Phases=1 yearly=res_kw_517_pu

New Load.load_p1ulv1774_2 conn=wye bus1=p1ulv1774.2 kV=0.12 Vminpu=0.8 Vmaxpu=1.2 model=1 kW=3.8748715750127736 kvar=1.5614372175332516 Phases=1 yearly=res_kw_517_pu

New Load.load_p1ulv1775_1 conn=wye bus1=p1ulv1775.1 kV=0.12 Vminpu=0.8 Vmaxpu=1.2 model=1 kW=4.616693376528782 kvar=1.2150674100412684 Phases=1 yearly=res_kw_197_pu

New Load.load_p1ulv1775_2 conn=wye bus1=p1ulv1775.2 kV=0.12 Vminpu=0.8 Vmaxpu=1.2 model=1 kW=4.616693376528782 kvar=1.2150674100412684 Phases=1 yearly=res_kw_197_pu

New Load.load_p1ulv1776_1 conn=wye bus1=p1ulv1776.1 kV=0.12 Vminpu=0.8 Vmaxpu=1.2 model=1 kW=4.712617748150944 kvar=1.0554842044862125 Phases=1 yearly=res_kw_828_pu

New Load.load_p1ulv1776_2 conn=wye bus1=p1ulv1776.2 kV=0.12 Vminpu=0.8 Vmaxpu=1.2 model=1 kW=4.712617748150944 kvar=1.0554842044862125 Phases=1 yearly=res_kw_828_pu

New Load.load_p1ulv1777_1 conn=wye bus1=p1ulv1777.1 kV=0.12 Vminpu=0.8 Vmaxpu=1.2 model=1 kW=5.927737313300522 kvar=2.018482424064332 Phases=1 yearly=res_kw_38_pu

New Load.load_p1ulv1777_2 conn=wye bus1=p1ulv1777.2 kV=0.12 Vminpu=0.8 Vmaxpu=1.2 model=1 kW=5.927737313300522 kvar=2.018482424064332 Phases=1 yearly=res_kw_38_pu

New Load.load_p1ulv1778_1 conn=wye bus1=p1ulv1778.1 kV=0.12 Vminpu=0.8 Vmaxpu=1.2 model=1 kW=2.40000228705824 kvar=1.0173787262529668 Phases=1 yearly=res_kw_1205_pu

New Load.load_p1ulv1778_2 conn=wye bus1=p1ulv1778.2 kV=0.12 Vminpu=0.8 Vmaxpu=1.2 model=1 kW=2.40000228705824 kvar=1.0173787262529668 Phases=1 yearly=res_kw_1205_pu

New Load.load_p1ulv1779_1 conn=wye bus1=p1ulv1779.1 kV=0.12 Vminpu=0.8 Vmaxpu=1.2 model=1 kW=5.991917116566147 kvar=1.6692124001399427 Phases=1 yearly=res_kw_314_pu

New Load.load_p1ulv1779_2 conn=wye bus1=p1ulv1779.2 kV=0.12 Vminpu=0.8 Vmaxpu=1.2 model=1 kW=5.991917116566147 kvar=1.6692124001399427 Phases=1 yearly=res_kw_314_pu

New Load.load_p1ulv1780_1 conn=wye bus1=p1ulv1780.1 kV=0.12 Vminpu=0.8 Vmaxpu=1.2 model=1 kW=6.727252203449795 kvar=1.9067277455995406 Phases=1 yearly=res_kw_822_pu

New Load.load_p1ulv1780_2 conn=wye bus1=p1ulv1780.2 kV=0.12 Vminpu=0.8 Vmaxpu=1.2 model=1 kW=6.727252203449795 kvar=1.9067277455995406 Phases=1 yearly=res_kw_822_pu

New Load.load_p1ulv1781_1 conn=wye bus1=p1ulv1781.1 kV=0.12 Vminpu=0.8 Vmaxpu=1.2 model=1 kW=3.8748715750127736 kvar=1.5614372175332516 Phases=1 yearly=res_kw_517_pu

New Load.load_p1ulv1781_2 conn=wye bus1=p1ulv1781.2 kV=0.12 Vminpu=0.8 Vmaxpu=1.2 model=1 kW=3.8748715750127736 kvar=1.5614372175332516 Phases=1 yearly=res_kw_517_pu

New Load.load_p1ulv1782_1 conn=wye bus1=p1ulv1782.1 kV=0.12 Vminpu=0.8 Vmaxpu=1.2 model=1 kW=3.8029744718879392 kvar=1.1462670306842289 Phases=1 yearly=res_kw_263_pu

New Load.load_p1ulv1782_2 conn=wye bus1=p1ulv1782.2 kV=0.12 Vminpu=0.8 Vmaxpu=1.2 model=1 kW=3.8029744718879392 kvar=1.1462670306842289 Phases=1 yearly=res_kw_263_pu

New Load.load_p1ulv1783_1 conn=wye bus1=p1ulv1783.1 kV=0.12 Vminpu=0.8 Vmaxpu=1.2 model=1 kW=6.727252203449795 kvar=1.9067277455995406 Phases=1 yearly=res_kw_822_pu

New Load.load_p1ulv1783_2 conn=wye bus1=p1ulv1783.2 kV=0.12 Vminpu=0.8 Vmaxpu=1.2 model=1 kW=6.727252203449795 kvar=1.9067277455995406 Phases=1 yearly=res_kw_822_pu

New Load.load_p1ulv1784_1 conn=wye bus1=p1ulv1784.1 kV=0.12 Vminpu=0.8 Vmaxpu=1.2 model=1 kW=3.6844020253442458 kvar=1.4451491397155931 Phases=1 yearly=res_kw_1258_pu

New Load.load_p1ulv1784_2 conn=wye bus1=p1ulv1784.2 kV=0.12 Vminpu=0.8 Vmaxpu=1.2 model=1 kW=3.6844020253442458 kvar=1.4451491397155931 Phases=1 yearly=res_kw_1258_pu

New Load.load_p1ulv3603_1 conn=wye bus1=p1ulv3603.1 kV=0.12 Vminpu=0.8 Vmaxpu=1.2 model=1 kW=4.616693376528782 kvar=1.2150674100412684 Phases=1 yearly=res_kw_197_pu

New Load.load_p1ulv3603_2 conn=wye bus1=p1ulv3603.2 kV=0.12 Vminpu=0.8 Vmaxpu=1.2 model=1 kW=4.616693376528782 kvar=1.2150674100412684 Phases=1 yearly=res_kw_197_pu

New Load.load_p1ulv3604_1 conn=wye bus1=p1ulv3604.1 kV=0.12 Vminpu=0.8 Vmaxpu=1.2 model=1 kW=5.927737313300522 kvar=2.018482424064332 Phases=1 yearly=res_kw_38_pu

New Load.load_p1ulv3604_2 conn=wye bus1=p1ulv3604.2 kV=0.12 Vminpu=0.8 Vmaxpu=1.2 model=1 kW=5.927737313300522 kvar=2.018482424064332 Phases=1 yearly=res_kw_38_pu

New Load.load_p1ulv3605_1 conn=wye bus1=p1ulv3605.1 kV=0.12 Vminpu=0.8 Vmaxpu=1.2 model=1 kW=10.375628907780863 kvar=4.616486224330442 Phases=1 yearly=res_kw_1267_pu

New Load.load_p1ulv3605_2 conn=wye bus1=p1ulv3605.2 kV=0.12 Vminpu=0.8 Vmaxpu=1.2 model=1 kW=10.375628907780863 kvar=4.616486224330442 Phases=1 yearly=res_kw_1267_pu

New Load.load_p1ulv3606_1 conn=wye bus1=p1ulv3606.1 kV=0.12 Vminpu=0.8 Vmaxpu=1.2 model=1 kW=5.6593015111322105 kvar=1.2761251920573724 Phases=1 yearly=res_kw_324_pu

New Load.load_p1ulv3606_2 conn=wye bus1=p1ulv3606.2 kV=0.12 Vminpu=0.8 Vmaxpu=1.2 model=1 kW=5.6593015111322105 kvar=1.2761251920573724 Phases=1 yearly=res_kw_324_pu

New Load.load_p1ulv3607_1 conn=wye bus1=p1ulv3607.1 kV=0.12 Vminpu=0.8 Vmaxpu=1.2 model=1 kW=5.952010513068915 kvar=1.0861641198514242 Phases=1 yearly=res_kw_1108_pu

New Load.load_p1ulv3607_2 conn=wye bus1=p1ulv3607.2 kV=0.12 Vminpu=0.8 Vmaxpu=1.2 model=1 kW=5.952010513068915 kvar=1.0861641198514242 Phases=1 yearly=res_kw_1108_pu

New Load.load_p1ulv3608_1 conn=wye bus1=p1ulv3608.1 kV=0.12 Vminpu=0.8 Vmaxpu=1.2 model=1 kW=4.792624300749482 kvar=1.1139407265067676 Phases=1 yearly=res_kw_898_pu

New Load.load_p1ulv3608_2 conn=wye bus1=p1ulv3608.2 kV=0.12 Vminpu=0.8 Vmaxpu=1.2 model=1 kW=4.792624300749482 kvar=1.1139407265067676 Phases=1 yearly=res_kw_898_pu

New Load.load_p1ulv3609_1 conn=wye bus1=p1ulv3609.1 kV=0.12 Vminpu=0.8 Vmaxpu=1.2 model=1 kW=8.002510293265328 kvar=1.3147667835887125 Phases=1 yearly=res_kw_932_pu

New Load.load_p1ulv3609_2 conn=wye bus1=p1ulv3609.2 kV=0.12 Vminpu=0.8 Vmaxpu=1.2 model=1 kW=8.002510293265328 kvar=1.3147667835887125 Phases=1 yearly=res_kw_932_pu

New Load.load_p1ulv3610_1 conn=wye bus1=p1ulv3610.1 kV=0.12 Vminpu=0.8 Vmaxpu=1.2 model=1 kW=3.469755020859998 kvar=0.8941520384931253 Phases=1 yearly=res_kw_4_pu

New Load.load_p1ulv3610_2 conn=wye bus1=p1ulv3610.2 kV=0.12 Vminpu=0.8 Vmaxpu=1.2 model=1 kW=3.469755020859998 kvar=0.8941520384931253 Phases=1 yearly=res_kw_4_pu

New Load.load_p1ulv3611_1 conn=wye bus1=p1ulv3611.1 kV=0.12 Vminpu=0.8 Vmaxpu=1.2 model=1 kW=2.4402285312138985 kvar=0.9342273883677934 Phases=1 yearly=res_kw_409_pu

New Load.load_p1ulv3611_2 conn=wye bus1=p1ulv3611.2 kV=0.12 Vminpu=0.8 Vmaxpu=1.2 model=1 kW=2.4402285312138985 kvar=0.9342273883677934 Phases=1 yearly=res_kw_409_pu

New Load.load_p1ulv3612_1 conn=wye bus1=p1ulv3612.1 kV=0.12 Vminpu=0.8 Vmaxpu=1.2 model=1 kW=5.436729579526792 kvar=1.2488470964899614 Phases=1 yearly=res_kw_454_pu

New Load.load_p1ulv3612_2 conn=wye bus1=p1ulv3612.2 kV=0.12 Vminpu=0.8 Vmaxpu=1.2 model=1 kW=5.436729579526792 kvar=1.2488470964899614 Phases=1 yearly=res_kw_454_pu

New Load.load_p1ulv3613_1 conn=wye bus1=p1ulv3613.1 kV=0.12 Vminpu=0.8 Vmaxpu=1.2 model=1 kW=5.004398133545832 kvar=1.6986912664433456 Phases=1 yearly=res_kw_101_pu

New Load.load_p1ulv3613_2 conn=wye bus1=p1ulv3613.2 kV=0.12 Vminpu=0.8 Vmaxpu=1.2 model=1 kW=5.004398133545832 kvar=1.6986912664433456 Phases=1 yearly=res_kw_101_pu

New Load.load_p1ulv3614_1 conn=wye bus1=p1ulv3614.1 kV=0.12 Vminpu=0.8 Vmaxpu=1.2 model=1 kW=4.359410160991208 kvar=0.7703346328307125 Phases=1 yearly=res_kw_470_pu

New Load.load_p1ulv3614_2 conn=wye bus1=p1ulv3614.2 kV=0.12 Vminpu=0.8 Vmaxpu=1.2 model=1 kW=4.359410160991208 kvar=0.7703346328307125 Phases=1 yearly=res_kw_470_pu

New Load.load_p1ulv3615_1 conn=wye bus1=p1ulv3615.1 kV=0.12 Vminpu=0.8 Vmaxpu=1.2 model=1 kW=9.666699253995569 kvar=2.090221480167897 Phases=1 yearly=res_kw_46_pu

New Load.load_p1ulv3615_2 conn=wye bus1=p1ulv3615.2 kV=0.12 Vminpu=0.8 Vmaxpu=1.2 model=1 kW=9.666699253995569 kvar=2.090221480167897 Phases=1 yearly=res_kw_46_pu

New Load.load_p1ulv3616_1 conn=wye bus1=p1ulv3616.1 kV=0.12 Vminpu=0.8 Vmaxpu=1.2 model=1 kW=6.007202613688192 kvar=1.5186407953688474 Phases=1 yearly=res_kw_20_pu

New Load.load_p1ulv3616_2 conn=wye bus1=p1ulv3616.2 kV=0.12 Vminpu=0.8 Vmaxpu=1.2 model=1 kW=6.007202613688192 kvar=1.5186407953688474 Phases=1 yearly=res_kw_20_pu

New Load.load_p1ulv3617_1 conn=wye bus1=p1ulv3617.1 kV=0.12 Vminpu=0.8 Vmaxpu=1.2 model=1 kW=4.788649591238137 kvar=1.023651375705972 Phases=1 yearly=res_kw_512_pu

New Load.load_p1ulv3617_2 conn=wye bus1=p1ulv3617.2 kV=0.12 Vminpu=0.8 Vmaxpu=1.2 model=1 kW=4.788649591238137 kvar=1.023651375705972 Phases=1 yearly=res_kw_512_pu

New Load.load_p1ulv3618_1 conn=wye bus1=p1ulv3618.1 kV=0.12 Vminpu=0.8 Vmaxpu=1.2 model=1 kW=10.375628907780863 kvar=4.616486224330442 Phases=1 yearly=res_kw_1267_pu

New Load.load_p1ulv3618_2 conn=wye bus1=p1ulv3618.2 kV=0.12 Vminpu=0.8 Vmaxpu=1.2 model=1 kW=10.375628907780863 kvar=4.616486224330442 Phases=1 yearly=res_kw_1267_pu

New Load.load_p1ulv3619_1 conn=wye bus1=p1ulv3619.1 kV=0.12 Vminpu=0.8 Vmaxpu=1.2 model=1 kW=10.375628907780863 kvar=4.616486224330442 Phases=1 yearly=res_kw_1267_pu

New Load.load_p1ulv3619_2 conn=wye bus1=p1ulv3619.2 kV=0.12 Vminpu=0.8 Vmaxpu=1.2 model=1 kW=10.375628907780863 kvar=4.616486224330442 Phases=1 yearly=res_kw_1267_pu

New Load.load_p1ulv3620_1 conn=wye bus1=p1ulv3620.1 kV=0.12 Vminpu=0.8 Vmaxpu=1.2 model=1 kW=5.436729579526792 kvar=1.2488470964899614 Phases=1 yearly=res_kw_454_pu

New Load.load_p1ulv3620_2 conn=wye bus1=p1ulv3620.2 kV=0.12 Vminpu=0.8 Vmaxpu=1.2 model=1 kW=5.436729579526792 kvar=1.2488470964899614 Phases=1 yearly=res_kw_454_pu

New Load.load_p1ulv3621_1 conn=wye bus1=p1ulv3621.1 kV=0.12 Vminpu=0.8 Vmaxpu=1.2 model=1 kW=4.725263221485363 kvar=1.0173757011563145 Phases=1 yearly=res_kw_752_pu

New Load.load_p1ulv3621_2 conn=wye bus1=p1ulv3621.2 kV=0.12 Vminpu=0.8 Vmaxpu=1.2 model=1 kW=4.725263221485363 kvar=1.0173757011563145 Phases=1 yearly=res_kw_752_pu

New Load.load_p1ulv3622_1 conn=wye bus1=p1ulv3622.1 kV=0.12 Vminpu=0.8 Vmaxpu=1.2 model=1 kW=10.375628907780863 kvar=4.616486224330442 Phases=1 yearly=res_kw_1267_pu

New Load.load_p1ulv3622_2 conn=wye bus1=p1ulv3622.2 kV=0.12 Vminpu=0.8 Vmaxpu=1.2 model=1 kW=10.375628907780863 kvar=4.616486224330442 Phases=1 yearly=res_kw_1267_pu

New Load.load_p1ulv3623_1 conn=wye bus1=p1ulv3623.1 kV=0.12 Vminpu=0.8 Vmaxpu=1.2 model=1 kW=10.375628907780863 kvar=4.616486224330442 Phases=1 yearly=res_kw_1267_pu

New Load.load_p1ulv3623_2 conn=wye bus1=p1ulv3623.2 kV=0.12 Vminpu=0.8 Vmaxpu=1.2 model=1 kW=10.375628907780863 kvar=4.616486224330442 Phases=1 yearly=res_kw_1267_pu

New Load.load_p1ulv3624_1 conn=wye bus1=p1ulv3624.1 kV=0.12 Vminpu=0.8 Vmaxpu=1.2 model=1 kW=4.8861141847383 kvar=1.2417687859549835 Phases=1 yearly=res_kw_549_pu

New Load.load_p1ulv3624_2 conn=wye bus1=p1ulv3624.2 kV=0.12 Vminpu=0.8 Vmaxpu=1.2 model=1 kW=4.8861141847383 kvar=1.2417687859549835 Phases=1 yearly=res_kw_549_pu

New Load.load_p1ulv3625_1 conn=wye bus1=p1ulv3625.1 kV=0.12 Vminpu=0.8 Vmaxpu=1.2 model=1 kW=2.9898249364160714 kvar=0.2983164502279761 Phases=1 yearly=res_kw_1070_pu

New Load.load_p1ulv3625_2 conn=wye bus1=p1ulv3625.2 kV=0.12 Vminpu=0.8 Vmaxpu=1.2 model=1 kW=2.9898249364160714 kvar=0.2983164502279761 Phases=1 yearly=res_kw_1070_pu
