New Loadshape.GSO_36.0352_-79.9153_45_90 npts= 35040 interval=0.25 mult = (file=../../../../../profiles/GSO_36.0352_-79.9153_45_90.csv)

New Loadshape.GSO_36.0352_-79.9153_45_135 npts= 35040 interval=0.25 mult = (file=../../../../../profiles/GSO_36.0352_-79.9153_45_135.csv)

New Loadshape.GSO_36.0721_-79.9153_45_270 npts= 35040 interval=0.25 mult = (file=../../../../../profiles/GSO_36.0721_-79.9153_45_270.csv)

New Loadshape.GSO_36.0721_-79.9153_25_180 npts= 35040 interval=0.25 mult = (file=../../../../../profiles/GSO_36.0721_-79.9153_25_180.csv)

New Loadshape.GSO_36.0352_-79.9153_35_225 npts= 35040 interval=0.25 mult = (file=../../../../../profiles/GSO_36.0352_-79.9153_35_225.csv)

New Loadshape.GSO_36.0721_-79.9153_25_135 npts= 35040 interval=0.25 mult = (file=../../../../../profiles/GSO_36.0721_-79.9153_25_135.csv)

New Loadshape.GSO_36.0721_-79.9153_15_270 npts= 35040 interval=0.25 mult = (file=../../../../../profiles/GSO_36.0721_-79.9153_15_270.csv)

New Loadshape.GSO_36.0721_-79.9153_15_180 npts= 35040 interval=0.25 mult = (file=../../../../../profiles/GSO_36.0721_-79.9153_15_180.csv)

New Loadshape.GSO_36.0721_-79.9153_35_180 npts= 35040 interval=0.25 mult = (file=../../../../../profiles/GSO_36.0721_-79.9153_35_180.csv)

New Loadshape.GSO_36.0721_-79.9153_35_225 npts= 35040 interval=0.25 mult = (file=../../../../../profiles/GSO_36.0721_-79.9153_35_225.csv)

New Loadshape.GSO_36.0721_-79.9153_45_180 npts= 35040 interval=0.25 mult = (file=../../../../../profiles/GSO_36.0721_-79.9153_45_180.csv)

New Loadshape.GSO_36.0352_-79.9153_15_225 npts= 35040 interval=0.25 mult = (file=../../../../../profiles/GSO_36.0352_-79.9153_15_225.csv)

New Loadshape.GSO_36.0721_-79.9153_35_90 npts= 35040 interval=0.25 mult = (file=../../../../../profiles/GSO_36.0721_-79.9153_35_90.csv)

New Loadshape.GSO_36.0721_-79.9153_15_90 npts= 35040 interval=0.25 mult = (file=../../../../../profiles/GSO_36.0721_-79.9153_15_90.csv)

New Loadshape.GSO_36.0721_-79.9153_25_270 npts= 35040 interval=0.25 mult = (file=../../../../../profiles/GSO_36.0721_-79.9153_25_270.csv)

New Loadshape.GSO_36.0352_-79.9153_25_270 npts= 35040 interval=0.25 mult = (file=../../../../../profiles/GSO_36.0352_-79.9153_25_270.csv)

New Loadshape.GSO_36.0352_-79.9153_45_180 npts= 35040 interval=0.25 mult = (file=../../../../../profiles/GSO_36.0352_-79.9153_45_180.csv)

New Loadshape.GSO_36.0721_-79.9153_25_90 npts= 35040 interval=0.25 mult = (file=../../../../../profiles/GSO_36.0721_-79.9153_25_90.csv)

New Loadshape.GSO_36.0721_-79.9153_25_225 npts= 35040 interval=0.25 mult = (file=../../../../../profiles/GSO_36.0721_-79.9153_25_225.csv)

New Loadshape.GSO_36.0352_-79.9153_25_225 npts= 35040 interval=0.25 mult = (file=../../../../../profiles/GSO_36.0352_-79.9153_25_225.csv)

New Loadshape.GSO_36.0352_-79.9153_25_180 npts= 35040 interval=0.25 mult = (file=../../../../../profiles/GSO_36.0352_-79.9153_25_180.csv)

New Loadshape.GSO_36.0721_-79.9153_35_135 npts= 35040 interval=0.25 mult = (file=../../../../../profiles/GSO_36.0721_-79.9153_35_135.csv)

New Loadshape.GSO_36.0352_-79.9153_15_270 npts= 35040 interval=0.25 mult = (file=../../../../../profiles/GSO_36.0352_-79.9153_15_270.csv)

New Loadshape.GSO_36.0721_-79.9153_35_270 npts= 35040 interval=0.25 mult = (file=../../../../../profiles/GSO_36.0721_-79.9153_35_270.csv)

New Loadshape.GSO_36.0352_-79.9153_45_225 npts= 35040 interval=0.25 mult = (file=../../../../../profiles/GSO_36.0352_-79.9153_45_225.csv)

New Loadshape.GSO_36.0352_-79.9153_35_270 npts= 35040 interval=0.25 mult = (file=../../../../../profiles/GSO_36.0352_-79.9153_35_270.csv)

New Loadshape.GSO_36.0352_-79.9153_25_135 npts= 35040 interval=0.25 mult = (file=../../../../../profiles/GSO_36.0352_-79.9153_25_135.csv)

New Loadshape.GSO_36.0352_-79.9153_25_90 npts= 35040 interval=0.25 mult = (file=../../../../../profiles/GSO_36.0352_-79.9153_25_90.csv)

New Loadshape.GSO_36.0352_-79.9153_35_180 npts= 35040 interval=0.25 mult = (file=../../../../../profiles/GSO_36.0352_-79.9153_35_180.csv)

New Loadshape.GSO_36.0721_-79.9153_15_135 npts= 35040 interval=0.25 mult = (file=../../../../../profiles/GSO_36.0721_-79.9153_15_135.csv)

New Loadshape.GSO_36.0352_-79.9153_15_180 npts= 35040 interval=0.25 mult = (file=../../../../../profiles/GSO_36.0352_-79.9153_15_180.csv)

New Loadshape.GSO_36.0721_-79.9153_45_225 npts= 35040 interval=0.25 mult = (file=../../../../../profiles/GSO_36.0721_-79.9153_45_225.csv)

New Loadshape.GSO_36.0352_-79.9153_15_90 npts= 35040 interval=0.25 mult = (file=../../../../../profiles/GSO_36.0352_-79.9153_15_90.csv)

New Loadshape.GSO_36.0352_-79.9153_35_90 npts= 35040 interval=0.25 mult = (file=../../../../../profiles/GSO_36.0352_-79.9153_35_90.csv)

New Loadshape.GSO_36.0721_-79.9153_15_225 npts= 35040 interval=0.25 mult = (file=../../../../../profiles/GSO_36.0721_-79.9153_15_225.csv)

New Loadshape.GSO_36.0352_-79.9153_15_135 npts= 35040 interval=0.25 mult = (file=../../../../../profiles/GSO_36.0352_-79.9153_15_135.csv)

New Loadshape.GSO_36.0721_-79.9153_45_135 npts= 35040 interval=0.25 mult = (file=../../../../../profiles/GSO_36.0721_-79.9153_45_135.csv)

New Loadshape.GSO_36.0352_-79.9153_35_135 npts= 35040 interval=0.25 mult = (file=../../../../../profiles/GSO_36.0352_-79.9153_35_135.csv)

New Loadshape.GSO_36.0352_-79.9153_45_270 npts= 35040 interval=0.25 mult = (file=../../../../../profiles/GSO_36.0352_-79.9153_45_270.csv)

New Loadshape.GSO_36.0721_-79.9153_45_90 npts= 35040 interval=0.25 mult = (file=../../../../../profiles/GSO_36.0721_-79.9153_45_90.csv)

New Loadshape.res_kw_453_pu npts= 35040 interval=0.25 mult = (file=../../../../../profiles/res_kw_453_pu.csv) qmult = (file=../../../../../profiles/res_kvar_453_pu.csv)

New Loadshape.res_kw_691_pu npts= 35040 interval=0.25 mult = (file=../../../../../profiles/res_kw_691_pu.csv) qmult = (file=../../../../../profiles/res_kvar_691_pu.csv)

New Loadshape.res_kw_523_pu npts= 35040 interval=0.25 mult = (file=../../../../../profiles/res_kw_523_pu.csv) qmult = (file=../../../../../profiles/res_kvar_523_pu.csv)

New Loadshape.res_kw_822_pu npts= 35040 interval=0.25 mult = (file=../../../../../profiles/res_kw_822_pu.csv) qmult = (file=../../../../../profiles/res_kvar_822_pu.csv)

New Loadshape.res_kw_33_pu npts= 35040 interval=0.25 mult = (file=../../../../../profiles/res_kw_33_pu.csv) qmult = (file=../../../../../profiles/res_kvar_33_pu.csv)

New Loadshape.res_kw_97_pu npts= 35040 interval=0.25 mult = (file=../../../../../profiles/res_kw_97_pu.csv) qmult = (file=../../../../../profiles/res_kvar_97_pu.csv)

New Loadshape.res_kw_549_pu npts= 35040 interval=0.25 mult = (file=../../../../../profiles/res_kw_549_pu.csv) qmult = (file=../../../../../profiles/res_kvar_549_pu.csv)

New Loadshape.res_kw_409_pu npts= 35040 interval=0.25 mult = (file=../../../../../profiles/res_kw_409_pu.csv) qmult = (file=../../../../../profiles/res_kvar_409_pu.csv)

New Loadshape.res_kw_795_pu npts= 35040 interval=0.25 mult = (file=../../../../../profiles/res_kw_795_pu.csv) qmult = (file=../../../../../profiles/res_kvar_795_pu.csv)

New Loadshape.res_kw_40_pu npts= 35040 interval=0.25 mult = (file=../../../../../profiles/res_kw_40_pu.csv) qmult = (file=../../../../../profiles/res_kvar_40_pu.csv)

New Loadshape.res_kw_93_pu npts= 35040 interval=0.25 mult = (file=../../../../../profiles/res_kw_93_pu.csv) qmult = (file=../../../../../profiles/res_kvar_93_pu.csv)

New Loadshape.res_kw_271_pu npts= 35040 interval=0.25 mult = (file=../../../../../profiles/res_kw_271_pu.csv) qmult = (file=../../../../../profiles/res_kvar_271_pu.csv)

New Loadshape.res_kw_653_pu npts= 35040 interval=0.25 mult = (file=../../../../../profiles/res_kw_653_pu.csv) qmult = (file=../../../../../profiles/res_kvar_653_pu.csv)

New Loadshape.res_kw_552_pu npts= 35040 interval=0.25 mult = (file=../../../../../profiles/res_kw_552_pu.csv) qmult = (file=../../../../../profiles/res_kvar_552_pu.csv)

New Loadshape.res_kw_380_pu npts= 35040 interval=0.25 mult = (file=../../../../../profiles/res_kw_380_pu.csv) qmult = (file=../../../../../profiles/res_kvar_380_pu.csv)

New Loadshape.res_kw_231_pu npts= 35040 interval=0.25 mult = (file=../../../../../profiles/res_kw_231_pu.csv) qmult = (file=../../../../../profiles/res_kvar_231_pu.csv)

New Loadshape.res_kw_141_pu npts= 35040 interval=0.25 mult = (file=../../../../../profiles/res_kw_141_pu.csv) qmult = (file=../../../../../profiles/res_kvar_141_pu.csv)

New Loadshape.res_kw_1104_pu npts= 35040 interval=0.25 mult = (file=../../../../../profiles/res_kw_1104_pu.csv) qmult = (file=../../../../../profiles/res_kvar_1104_pu.csv)

New Loadshape.res_kw_670_pu npts= 35040 interval=0.25 mult = (file=../../../../../profiles/res_kw_670_pu.csv) qmult = (file=../../../../../profiles/res_kvar_670_pu.csv)

New Loadshape.res_kw_407_pu npts= 35040 interval=0.25 mult = (file=../../../../../profiles/res_kw_407_pu.csv) qmult = (file=../../../../../profiles/res_kvar_407_pu.csv)

New Loadshape.res_kw_1190_pu npts= 35040 interval=0.25 mult = (file=../../../../../profiles/res_kw_1190_pu.csv) qmult = (file=../../../../../profiles/res_kvar_1190_pu.csv)

New Loadshape.res_kw_532_pu npts= 35040 interval=0.25 mult = (file=../../../../../profiles/res_kw_532_pu.csv) qmult = (file=../../../../../profiles/res_kvar_532_pu.csv)

New Loadshape.res_kw_504_pu npts= 35040 interval=0.25 mult = (file=../../../../../profiles/res_kw_504_pu.csv) qmult = (file=../../../../../profiles/res_kvar_504_pu.csv)

New Loadshape.res_kw_512_pu npts= 35040 interval=0.25 mult = (file=../../../../../profiles/res_kw_512_pu.csv) qmult = (file=../../../../../profiles/res_kvar_512_pu.csv)

New Loadshape.res_kw_53_pu npts= 35040 interval=0.25 mult = (file=../../../../../profiles/res_kw_53_pu.csv) qmult = (file=../../../../../profiles/res_kvar_53_pu.csv)

New Loadshape.res_kw_24_pu npts= 35040 interval=0.25 mult = (file=../../../../../profiles/res_kw_24_pu.csv) qmult = (file=../../../../../profiles/res_kvar_24_pu.csv)

New Loadshape.res_kw_1157_pu npts= 35040 interval=0.25 mult = (file=../../../../../profiles/res_kw_1157_pu.csv) qmult = (file=../../../../../profiles/res_kvar_1157_pu.csv)

New Loadshape.res_kw_959_pu npts= 35040 interval=0.25 mult = (file=../../../../../profiles/res_kw_959_pu.csv) qmult = (file=../../../../../profiles/res_kvar_959_pu.csv)

New Loadshape.res_kw_327_pu npts= 35040 interval=0.25 mult = (file=../../../../../profiles/res_kw_327_pu.csv) qmult = (file=../../../../../profiles/res_kvar_327_pu.csv)

New Loadshape.res_kw_1037_pu npts= 35040 interval=0.25 mult = (file=../../../../../profiles/res_kw_1037_pu.csv) qmult = (file=../../../../../profiles/res_kvar_1037_pu.csv)

New Loadshape.res_kw_1258_pu npts= 35040 interval=0.25 mult = (file=../../../../../profiles/res_kw_1258_pu.csv) qmult = (file=../../../../../profiles/res_kvar_1258_pu.csv)

New Loadshape.res_kw_505_pu npts= 35040 interval=0.25 mult = (file=../../../../../profiles/res_kw_505_pu.csv) qmult = (file=../../../../../profiles/res_kvar_505_pu.csv)

New Loadshape.res_kw_630_pu npts= 35040 interval=0.25 mult = (file=../../../../../profiles/res_kw_630_pu.csv) qmult = (file=../../../../../profiles/res_kvar_630_pu.csv)

New Loadshape.res_kw_652_pu npts= 35040 interval=0.25 mult = (file=../../../../../profiles/res_kw_652_pu.csv) qmult = (file=../../../../../profiles/res_kvar_652_pu.csv)

New Loadshape.res_kw_1115_pu npts= 35040 interval=0.25 mult = (file=../../../../../profiles/res_kw_1115_pu.csv) qmult = (file=../../../../../profiles/res_kvar_1115_pu.csv)

New Loadshape.res_kw_585_pu npts= 35040 interval=0.25 mult = (file=../../../../../profiles/res_kw_585_pu.csv) qmult = (file=../../../../../profiles/res_kvar_585_pu.csv)

New Loadshape.res_kw_560_pu npts= 35040 interval=0.25 mult = (file=../../../../../profiles/res_kw_560_pu.csv) qmult = (file=../../../../../profiles/res_kvar_560_pu.csv)

New Loadshape.res_kw_268_pu npts= 35040 interval=0.25 mult = (file=../../../../../profiles/res_kw_268_pu.csv) qmult = (file=../../../../../profiles/res_kvar_268_pu.csv)

New Loadshape.res_kw_968_pu npts= 35040 interval=0.25 mult = (file=../../../../../profiles/res_kw_968_pu.csv) qmult = (file=../../../../../profiles/res_kvar_968_pu.csv)

New Loadshape.res_kw_46_pu npts= 35040 interval=0.25 mult = (file=../../../../../profiles/res_kw_46_pu.csv) qmult = (file=../../../../../profiles/res_kvar_46_pu.csv)

New Loadshape.res_kw_331_pu npts= 35040 interval=0.25 mult = (file=../../../../../profiles/res_kw_331_pu.csv) qmult = (file=../../../../../profiles/res_kvar_331_pu.csv)

New Loadshape.res_kw_162_pu npts= 35040 interval=0.25 mult = (file=../../../../../profiles/res_kw_162_pu.csv) qmult = (file=../../../../../profiles/res_kvar_162_pu.csv)

New Loadshape.res_kw_98_pu npts= 35040 interval=0.25 mult = (file=../../../../../profiles/res_kw_98_pu.csv) qmult = (file=../../../../../profiles/res_kvar_98_pu.csv)

New Loadshape.res_kw_1248_pu npts= 35040 interval=0.25 mult = (file=../../../../../profiles/res_kw_1248_pu.csv) qmult = (file=../../../../../profiles/res_kvar_1248_pu.csv)

New Loadshape.res_kw_1094_pu npts= 35040 interval=0.25 mult = (file=../../../../../profiles/res_kw_1094_pu.csv) qmult = (file=../../../../../profiles/res_kvar_1094_pu.csv)

New Loadshape.res_kw_319_pu npts= 35040 interval=0.25 mult = (file=../../../../../profiles/res_kw_319_pu.csv) qmult = (file=../../../../../profiles/res_kvar_319_pu.csv)

New Loadshape.res_kw_825_pu npts= 35040 interval=0.25 mult = (file=../../../../../profiles/res_kw_825_pu.csv) qmult = (file=../../../../../profiles/res_kvar_825_pu.csv)

New Loadshape.res_kw_879_pu npts= 35040 interval=0.25 mult = (file=../../../../../profiles/res_kw_879_pu.csv) qmult = (file=../../../../../profiles/res_kvar_879_pu.csv)

New Loadshape.res_kw_953_pu npts= 35040 interval=0.25 mult = (file=../../../../../profiles/res_kw_953_pu.csv) qmult = (file=../../../../../profiles/res_kvar_953_pu.csv)

New Loadshape.res_kw_517_pu npts= 35040 interval=0.25 mult = (file=../../../../../profiles/res_kw_517_pu.csv) qmult = (file=../../../../../profiles/res_kvar_517_pu.csv)

New Loadshape.res_kw_842_pu npts= 35040 interval=0.25 mult = (file=../../../../../profiles/res_kw_842_pu.csv) qmult = (file=../../../../../profiles/res_kvar_842_pu.csv)

New Loadshape.res_kw_250_pu npts= 35040 interval=0.25 mult = (file=../../../../../profiles/res_kw_250_pu.csv) qmult = (file=../../../../../profiles/res_kvar_250_pu.csv)

New Loadshape.res_kw_1205_pu npts= 35040 interval=0.25 mult = (file=../../../../../profiles/res_kw_1205_pu.csv) qmult = (file=../../../../../profiles/res_kvar_1205_pu.csv)

New Loadshape.res_kw_128_pu npts= 35040 interval=0.25 mult = (file=../../../../../profiles/res_kw_128_pu.csv) qmult = (file=../../../../../profiles/res_kvar_128_pu.csv)

New Loadshape.res_kw_1186_pu npts= 35040 interval=0.25 mult = (file=../../../../../profiles/res_kw_1186_pu.csv) qmult = (file=../../../../../profiles/res_kvar_1186_pu.csv)

New Loadshape.res_kw_470_pu npts= 35040 interval=0.25 mult = (file=../../../../../profiles/res_kw_470_pu.csv) qmult = (file=../../../../../profiles/res_kvar_470_pu.csv)

New Loadshape.res_kw_1228_pu npts= 35040 interval=0.25 mult = (file=../../../../../profiles/res_kw_1228_pu.csv) qmult = (file=../../../../../profiles/res_kvar_1228_pu.csv)

New Loadshape.res_kw_4_pu npts= 35040 interval=0.25 mult = (file=../../../../../profiles/res_kw_4_pu.csv) qmult = (file=../../../../../profiles/res_kvar_4_pu.csv)

New Loadshape.res_kw_807_pu npts= 35040 interval=0.25 mult = (file=../../../../../profiles/res_kw_807_pu.csv) qmult = (file=../../../../../profiles/res_kvar_807_pu.csv)

New Loadshape.res_kw_798_pu npts= 35040 interval=0.25 mult = (file=../../../../../profiles/res_kw_798_pu.csv) qmult = (file=../../../../../profiles/res_kvar_798_pu.csv)

New Loadshape.res_kw_1099_pu npts= 35040 interval=0.25 mult = (file=../../../../../profiles/res_kw_1099_pu.csv) qmult = (file=../../../../../profiles/res_kvar_1099_pu.csv)

New Loadshape.res_kw_1264_pu npts= 35040 interval=0.25 mult = (file=../../../../../profiles/res_kw_1264_pu.csv) qmult = (file=../../../../../profiles/res_kvar_1264_pu.csv)

New Loadshape.res_kw_1069_pu npts= 35040 interval=0.25 mult = (file=../../../../../profiles/res_kw_1069_pu.csv) qmult = (file=../../../../../profiles/res_kvar_1069_pu.csv)

New Loadshape.res_kw_558_pu npts= 35040 interval=0.25 mult = (file=../../../../../profiles/res_kw_558_pu.csv) qmult = (file=../../../../../profiles/res_kvar_558_pu.csv)

New Loadshape.res_kw_748_pu npts= 35040 interval=0.25 mult = (file=../../../../../profiles/res_kw_748_pu.csv) qmult = (file=../../../../../profiles/res_kvar_748_pu.csv)

New Loadshape.res_kw_123_pu npts= 35040 interval=0.25 mult = (file=../../../../../profiles/res_kw_123_pu.csv) qmult = (file=../../../../../profiles/res_kvar_123_pu.csv)

New Loadshape.res_kw_817_pu npts= 35040 interval=0.25 mult = (file=../../../../../profiles/res_kw_817_pu.csv) qmult = (file=../../../../../profiles/res_kvar_817_pu.csv)

New Loadshape.res_kw_222_pu npts= 35040 interval=0.25 mult = (file=../../../../../profiles/res_kw_222_pu.csv) qmult = (file=../../../../../profiles/res_kvar_222_pu.csv)

New Loadshape.res_kw_76_pu npts= 35040 interval=0.25 mult = (file=../../../../../profiles/res_kw_76_pu.csv) qmult = (file=../../../../../profiles/res_kvar_76_pu.csv)

New Loadshape.res_kw_897_pu npts= 35040 interval=0.25 mult = (file=../../../../../profiles/res_kw_897_pu.csv) qmult = (file=../../../../../profiles/res_kvar_897_pu.csv)

New Loadshape.res_kw_408_pu npts= 35040 interval=0.25 mult = (file=../../../../../profiles/res_kw_408_pu.csv) qmult = (file=../../../../../profiles/res_kvar_408_pu.csv)

New Loadshape.res_kw_146_pu npts= 35040 interval=0.25 mult = (file=../../../../../profiles/res_kw_146_pu.csv) qmult = (file=../../../../../profiles/res_kvar_146_pu.csv)

New Loadshape.res_kw_1229_pu npts= 35040 interval=0.25 mult = (file=../../../../../profiles/res_kw_1229_pu.csv) qmult = (file=../../../../../profiles/res_kvar_1229_pu.csv)

New Loadshape.res_kw_905_pu npts= 35040 interval=0.25 mult = (file=../../../../../profiles/res_kw_905_pu.csv) qmult = (file=../../../../../profiles/res_kvar_905_pu.csv)

New Loadshape.res_kw_1149_pu npts= 35040 interval=0.25 mult = (file=../../../../../profiles/res_kw_1149_pu.csv) qmult = (file=../../../../../profiles/res_kvar_1149_pu.csv)

New Loadshape.res_kw_496_pu npts= 35040 interval=0.25 mult = (file=../../../../../profiles/res_kw_496_pu.csv) qmult = (file=../../../../../profiles/res_kvar_496_pu.csv)

New Loadshape.res_kw_314_pu npts= 35040 interval=0.25 mult = (file=../../../../../profiles/res_kw_314_pu.csv) qmult = (file=../../../../../profiles/res_kvar_314_pu.csv)

New Loadshape.res_kw_196_pu npts= 35040 interval=0.25 mult = (file=../../../../../profiles/res_kw_196_pu.csv) qmult = (file=../../../../../profiles/res_kvar_196_pu.csv)

New Loadshape.res_kw_1083_pu npts= 35040 interval=0.25 mult = (file=../../../../../profiles/res_kw_1083_pu.csv) qmult = (file=../../../../../profiles/res_kvar_1083_pu.csv)

New Loadshape.res_kw_30_pu npts= 35040 interval=0.25 mult = (file=../../../../../profiles/res_kw_30_pu.csv) qmult = (file=../../../../../profiles/res_kvar_30_pu.csv)

New Loadshape.res_kw_199_pu npts= 35040 interval=0.25 mult = (file=../../../../../profiles/res_kw_199_pu.csv) qmult = (file=../../../../../profiles/res_kvar_199_pu.csv)

New Loadshape.res_kw_1084_pu npts= 35040 interval=0.25 mult = (file=../../../../../profiles/res_kw_1084_pu.csv) qmult = (file=../../../../../profiles/res_kvar_1084_pu.csv)

New Loadshape.res_kw_1194_pu npts= 35040 interval=0.25 mult = (file=../../../../../profiles/res_kw_1194_pu.csv) qmult = (file=../../../../../profiles/res_kvar_1194_pu.csv)

New Loadshape.res_kw_1223_pu npts= 35040 interval=0.25 mult = (file=../../../../../profiles/res_kw_1223_pu.csv) qmult = (file=../../../../../profiles/res_kvar_1223_pu.csv)

New Loadshape.res_kw_846_pu npts= 35040 interval=0.25 mult = (file=../../../../../profiles/res_kw_846_pu.csv) qmult = (file=../../../../../profiles/res_kvar_846_pu.csv)

New Loadshape.res_kw_63_pu npts= 35040 interval=0.25 mult = (file=../../../../../profiles/res_kw_63_pu.csv) qmult = (file=../../../../../profiles/res_kvar_63_pu.csv)

New Loadshape.res_kw_598_pu npts= 35040 interval=0.25 mult = (file=../../../../../profiles/res_kw_598_pu.csv) qmult = (file=../../../../../profiles/res_kvar_598_pu.csv)

New Loadshape.res_kw_1276_pu npts= 35040 interval=0.25 mult = (file=../../../../../profiles/res_kw_1276_pu.csv) qmult = (file=../../../../../profiles/res_kvar_1276_pu.csv)

New Loadshape.res_kw_945_pu npts= 35040 interval=0.25 mult = (file=../../../../../profiles/res_kw_945_pu.csv) qmult = (file=../../../../../profiles/res_kvar_945_pu.csv)

New Loadshape.res_kw_39_pu npts= 35040 interval=0.25 mult = (file=../../../../../profiles/res_kw_39_pu.csv) qmult = (file=../../../../../profiles/res_kvar_39_pu.csv)

New Loadshape.res_kw_325_pu npts= 35040 interval=0.25 mult = (file=../../../../../profiles/res_kw_325_pu.csv) qmult = (file=../../../../../profiles/res_kvar_325_pu.csv)

New Loadshape.res_kw_654_pu npts= 35040 interval=0.25 mult = (file=../../../../../profiles/res_kw_654_pu.csv) qmult = (file=../../../../../profiles/res_kvar_654_pu.csv)

New Loadshape.res_kw_307_pu npts= 35040 interval=0.25 mult = (file=../../../../../profiles/res_kw_307_pu.csv) qmult = (file=../../../../../profiles/res_kvar_307_pu.csv)

New Loadshape.res_kw_41_pu npts= 35040 interval=0.25 mult = (file=../../../../../profiles/res_kw_41_pu.csv) qmult = (file=../../../../../profiles/res_kvar_41_pu.csv)

New Loadshape.res_kw_236_pu npts= 35040 interval=0.25 mult = (file=../../../../../profiles/res_kw_236_pu.csv) qmult = (file=../../../../../profiles/res_kvar_236_pu.csv)

New Loadshape.res_kw_696_pu npts= 35040 interval=0.25 mult = (file=../../../../../profiles/res_kw_696_pu.csv) qmult = (file=../../../../../profiles/res_kvar_696_pu.csv)

New Loadshape.res_kw_664_pu npts= 35040 interval=0.25 mult = (file=../../../../../profiles/res_kw_664_pu.csv) qmult = (file=../../../../../profiles/res_kvar_664_pu.csv)

New Loadshape.res_kw_1256_pu npts= 35040 interval=0.25 mult = (file=../../../../../profiles/res_kw_1256_pu.csv) qmult = (file=../../../../../profiles/res_kvar_1256_pu.csv)

New Loadshape.res_kw_272_pu npts= 35040 interval=0.25 mult = (file=../../../../../profiles/res_kw_272_pu.csv) qmult = (file=../../../../../profiles/res_kvar_272_pu.csv)

New Loadshape.res_kw_332_pu npts= 35040 interval=0.25 mult = (file=../../../../../profiles/res_kw_332_pu.csv) qmult = (file=../../../../../profiles/res_kvar_332_pu.csv)

New Loadshape.res_kw_280_pu npts= 35040 interval=0.25 mult = (file=../../../../../profiles/res_kw_280_pu.csv) qmult = (file=../../../../../profiles/res_kvar_280_pu.csv)

New Loadshape.res_kw_763_pu npts= 35040 interval=0.25 mult = (file=../../../../../profiles/res_kw_763_pu.csv) qmult = (file=../../../../../profiles/res_kvar_763_pu.csv)

New Loadshape.res_kw_229_pu npts= 35040 interval=0.25 mult = (file=../../../../../profiles/res_kw_229_pu.csv) qmult = (file=../../../../../profiles/res_kvar_229_pu.csv)

New Loadshape.res_kw_853_pu npts= 35040 interval=0.25 mult = (file=../../../../../profiles/res_kw_853_pu.csv) qmult = (file=../../../../../profiles/res_kvar_853_pu.csv)

New Loadshape.res_kw_264_pu npts= 35040 interval=0.25 mult = (file=../../../../../profiles/res_kw_264_pu.csv) qmult = (file=../../../../../profiles/res_kvar_264_pu.csv)

New Loadshape.res_kw_1041_pu npts= 35040 interval=0.25 mult = (file=../../../../../profiles/res_kw_1041_pu.csv) qmult = (file=../../../../../profiles/res_kvar_1041_pu.csv)

New Loadshape.res_kw_1234_pu npts= 35040 interval=0.25 mult = (file=../../../../../profiles/res_kw_1234_pu.csv) qmult = (file=../../../../../profiles/res_kvar_1234_pu.csv)

New Loadshape.res_kw_916_pu npts= 35040 interval=0.25 mult = (file=../../../../../profiles/res_kw_916_pu.csv) qmult = (file=../../../../../profiles/res_kvar_916_pu.csv)

New Loadshape.res_kw_216_pu npts= 35040 interval=0.25 mult = (file=../../../../../profiles/res_kw_216_pu.csv) qmult = (file=../../../../../profiles/res_kvar_216_pu.csv)

New Loadshape.res_kw_75_pu npts= 35040 interval=0.25 mult = (file=../../../../../profiles/res_kw_75_pu.csv) qmult = (file=../../../../../profiles/res_kvar_75_pu.csv)

New Loadshape.res_kw_1239_pu npts= 35040 interval=0.25 mult = (file=../../../../../profiles/res_kw_1239_pu.csv) qmult = (file=../../../../../profiles/res_kvar_1239_pu.csv)

New Loadshape.res_kw_742_pu npts= 35040 interval=0.25 mult = (file=../../../../../profiles/res_kw_742_pu.csv) qmult = (file=../../../../../profiles/res_kvar_742_pu.csv)

New Loadshape.res_kw_642_pu npts= 35040 interval=0.25 mult = (file=../../../../../profiles/res_kw_642_pu.csv) qmult = (file=../../../../../profiles/res_kvar_642_pu.csv)

New Loadshape.res_kw_431_pu npts= 35040 interval=0.25 mult = (file=../../../../../profiles/res_kw_431_pu.csv) qmult = (file=../../../../../profiles/res_kvar_431_pu.csv)

New Loadshape.res_kw_90_pu npts= 35040 interval=0.25 mult = (file=../../../../../profiles/res_kw_90_pu.csv) qmult = (file=../../../../../profiles/res_kvar_90_pu.csv)

New Loadshape.res_kw_62_pu npts= 35040 interval=0.25 mult = (file=../../../../../profiles/res_kw_62_pu.csv) qmult = (file=../../../../../profiles/res_kvar_62_pu.csv)

New Loadshape.res_kw_627_pu npts= 35040 interval=0.25 mult = (file=../../../../../profiles/res_kw_627_pu.csv) qmult = (file=../../../../../profiles/res_kvar_627_pu.csv)

New Loadshape.res_kw_1105_pu npts= 35040 interval=0.25 mult = (file=../../../../../profiles/res_kw_1105_pu.csv) qmult = (file=../../../../../profiles/res_kvar_1105_pu.csv)

New Loadshape.res_kw_625_pu npts= 35040 interval=0.25 mult = (file=../../../../../profiles/res_kw_625_pu.csv) qmult = (file=../../../../../profiles/res_kvar_625_pu.csv)

New Loadshape.res_kw_695_pu npts= 35040 interval=0.25 mult = (file=../../../../../profiles/res_kw_695_pu.csv) qmult = (file=../../../../../profiles/res_kvar_695_pu.csv)

New Loadshape.res_kw_548_pu npts= 35040 interval=0.25 mult = (file=../../../../../profiles/res_kw_548_pu.csv) qmult = (file=../../../../../profiles/res_kvar_548_pu.csv)

New Loadshape.res_kw_697_pu npts= 35040 interval=0.25 mult = (file=../../../../../profiles/res_kw_697_pu.csv) qmult = (file=../../../../../profiles/res_kvar_697_pu.csv)

New Loadshape.res_kw_452_pu npts= 35040 interval=0.25 mult = (file=../../../../../profiles/res_kw_452_pu.csv) qmult = (file=../../../../../profiles/res_kvar_452_pu.csv)

New Loadshape.res_kw_205_pu npts= 35040 interval=0.25 mult = (file=../../../../../profiles/res_kw_205_pu.csv) qmult = (file=../../../../../profiles/res_kvar_205_pu.csv)

New Loadshape.res_kw_263_pu npts= 35040 interval=0.25 mult = (file=../../../../../profiles/res_kw_263_pu.csv) qmult = (file=../../../../../profiles/res_kvar_263_pu.csv)

New Loadshape.com_kw_13616_pu npts= 35040 interval=0.25 mult = (file=../../../../../profiles/com_kw_13616_pu.csv) qmult = (file=../../../../../profiles/com_kvar_13616_pu.csv)

New Loadshape.com_kw_13797_pu npts= 35040 interval=0.25 mult = (file=../../../../../profiles/com_kw_13797_pu.csv) qmult = (file=../../../../../profiles/com_kvar_13797_pu.csv)

New Loadshape.com_kw_14094_pu npts= 35040 interval=0.25 mult = (file=../../../../../profiles/com_kw_14094_pu.csv) qmult = (file=../../../../../profiles/com_kvar_14094_pu.csv)

New Loadshape.com_kw_14121_pu npts= 35040 interval=0.25 mult = (file=../../../../../profiles/com_kw_14121_pu.csv) qmult = (file=../../../../../profiles/com_kvar_14121_pu.csv)

New Loadshape.com_kw_14976_pu npts= 35040 interval=0.25 mult = (file=../../../../../profiles/com_kw_14976_pu.csv) qmult = (file=../../../../../profiles/com_kvar_14976_pu.csv)

New Loadshape.com_kw_13760_pu npts= 35040 interval=0.25 mult = (file=../../../../../profiles/com_kw_13760_pu.csv) qmult = (file=../../../../../profiles/com_kvar_13760_pu.csv)

New Loadshape.com_kw_13887_pu npts= 35040 interval=0.25 mult = (file=../../../../../profiles/com_kw_13887_pu.csv) qmult = (file=../../../../../profiles/com_kvar_13887_pu.csv)

New Loadshape.com_kw_14650_pu npts= 35040 interval=0.25 mult = (file=../../../../../profiles/com_kw_14650_pu.csv) qmult = (file=../../../../../profiles/com_kvar_14650_pu.csv)

New Loadshape.com_kw_13400_pu npts= 35040 interval=0.25 mult = (file=../../../../../profiles/com_kw_13400_pu.csv) qmult = (file=../../../../../profiles/com_kvar_13400_pu.csv)

New Loadshape.com_kw_14206_pu npts= 35040 interval=0.25 mult = (file=../../../../../profiles/com_kw_14206_pu.csv) qmult = (file=../../../../../profiles/com_kvar_14206_pu.csv)

New Loadshape.com_kw_12816_pu npts= 35040 interval=0.25 mult = (file=../../../../../profiles/com_kw_12816_pu.csv) qmult = (file=../../../../../profiles/com_kvar_12816_pu.csv)

New Loadshape.com_kw_14716_pu npts= 35040 interval=0.25 mult = (file=../../../../../profiles/com_kw_14716_pu.csv) qmult = (file=../../../../../profiles/com_kvar_14716_pu.csv)

New Loadshape.com_kw_12824_pu npts= 35040 interval=0.25 mult = (file=../../../../../profiles/com_kw_12824_pu.csv) qmult = (file=../../../../../profiles/com_kvar_12824_pu.csv)

New Loadshape.com_kw_14701_pu npts= 35040 interval=0.25 mult = (file=../../../../../profiles/com_kw_14701_pu.csv) qmult = (file=../../../../../profiles/com_kvar_14701_pu.csv)

New Loadshape.com_kw_14646_pu npts= 35040 interval=0.25 mult = (file=../../../../../profiles/com_kw_14646_pu.csv) qmult = (file=../../../../../profiles/com_kvar_14646_pu.csv)

New Loadshape.com_kw_14067_pu npts= 35040 interval=0.25 mult = (file=../../../../../profiles/com_kw_14067_pu.csv) qmult = (file=../../../../../profiles/com_kvar_14067_pu.csv)

New Loadshape.com_kw_13023_pu npts= 35040 interval=0.25 mult = (file=../../../../../profiles/com_kw_13023_pu.csv) qmult = (file=../../../../../profiles/com_kvar_13023_pu.csv)

New Loadshape.com_kw_12863_pu npts= 35040 interval=0.25 mult = (file=../../../../../profiles/com_kw_12863_pu.csv) qmult = (file=../../../../../profiles/com_kvar_12863_pu.csv)
