New Loadshape.GSO_36.1090_-79.9153_15_180 npts= 35040 interval=0.25 mult = (file=../../../../profiles/GSO_36.1090_-79.9153_15_180.csv)

New Loadshape.GSO_36.1090_-79.9153_15_270 npts= 35040 interval=0.25 mult = (file=../../../../profiles/GSO_36.1090_-79.9153_15_270.csv)

New Loadshape.GSO_36.1090_-79.9153_35_180 npts= 35040 interval=0.25 mult = (file=../../../../profiles/GSO_36.1090_-79.9153_35_180.csv)

New Loadshape.GSO_36.1090_-79.9153_25_135 npts= 35040 interval=0.25 mult = (file=../../../../profiles/GSO_36.1090_-79.9153_25_135.csv)

New Loadshape.GSO_36.1090_-79.9153_35_90 npts= 35040 interval=0.25 mult = (file=../../../../profiles/GSO_36.1090_-79.9153_35_90.csv)

New Loadshape.GSO_36.1090_-79.9153_15_135 npts= 35040 interval=0.25 mult = (file=../../../../profiles/GSO_36.1090_-79.9153_15_135.csv)

New Loadshape.GSO_36.1090_-79.9153_35_270 npts= 35040 interval=0.25 mult = (file=../../../../profiles/GSO_36.1090_-79.9153_35_270.csv)

New Loadshape.GSO_36.1090_-79.9153_25_180 npts= 35040 interval=0.25 mult = (file=../../../../profiles/GSO_36.1090_-79.9153_25_180.csv)

New Loadshape.GSO_36.1090_-79.9153_25_270 npts= 35040 interval=0.25 mult = (file=../../../../profiles/GSO_36.1090_-79.9153_25_270.csv)

New Loadshape.GSO_36.0721_-79.9153_35_270 npts= 35040 interval=0.25 mult = (file=../../../../profiles/GSO_36.0721_-79.9153_35_270.csv)

New Loadshape.GSO_36.1090_-79.9153_15_225 npts= 35040 interval=0.25 mult = (file=../../../../profiles/GSO_36.1090_-79.9153_15_225.csv)

New Loadshape.GSO_36.1090_-79.9153_25_90 npts= 35040 interval=0.25 mult = (file=../../../../profiles/GSO_36.1090_-79.9153_25_90.csv)

New Loadshape.GSO_36.1090_-79.9153_25_225 npts= 35040 interval=0.25 mult = (file=../../../../profiles/GSO_36.1090_-79.9153_25_225.csv)

New Loadshape.GSO_36.1090_-79.9153_15_90 npts= 35040 interval=0.25 mult = (file=../../../../profiles/GSO_36.1090_-79.9153_15_90.csv)

New Loadshape.GSO_36.1090_-79.9153_35_135 npts= 35040 interval=0.25 mult = (file=../../../../profiles/GSO_36.1090_-79.9153_35_135.csv)

New Loadshape.GSO_36.1090_-79.9153_45_180 npts= 35040 interval=0.25 mult = (file=../../../../profiles/GSO_36.1090_-79.9153_45_180.csv)

New Loadshape.GSO_36.1090_-79.9153_35_225 npts= 35040 interval=0.25 mult = (file=../../../../profiles/GSO_36.1090_-79.9153_35_225.csv)

New Loadshape.GSO_36.1090_-79.9153_55_225 npts= 35040 interval=0.25 mult = (file=../../../../profiles/GSO_36.1090_-79.9153_55_225.csv)

New Loadshape.GSO_36.0721_-79.9153_25_135 npts= 35040 interval=0.25 mult = (file=../../../../profiles/GSO_36.0721_-79.9153_25_135.csv)

New Loadshape.GSO_36.1090_-79.9153_45_135 npts= 35040 interval=0.25 mult = (file=../../../../profiles/GSO_36.1090_-79.9153_45_135.csv)

New Loadshape.GSO_36.1090_-79.9153_45_90 npts= 35040 interval=0.25 mult = (file=../../../../profiles/GSO_36.1090_-79.9153_45_90.csv)

New Loadshape.GSO_36.1090_-79.9153_45_270 npts= 35040 interval=0.25 mult = (file=../../../../profiles/GSO_36.1090_-79.9153_45_270.csv)

New Loadshape.GSO_36.1090_-79.9153_45_225 npts= 35040 interval=0.25 mult = (file=../../../../profiles/GSO_36.1090_-79.9153_45_225.csv)

New Loadshape.GSO_36.0721_-79.9153_35_180 npts= 35040 interval=0.25 mult = (file=../../../../profiles/GSO_36.0721_-79.9153_35_180.csv)

New Loadshape.GSO_36.0721_-79.9153_45_180 npts= 35040 interval=0.25 mult = (file=../../../../profiles/GSO_36.0721_-79.9153_45_180.csv)

New Loadshape.GSO_36.0721_-79.9153_45_90 npts= 35040 interval=0.25 mult = (file=../../../../profiles/GSO_36.0721_-79.9153_45_90.csv)

New Loadshape.GSO_36.0721_-79.9153_15_180 npts= 35040 interval=0.25 mult = (file=../../../../profiles/GSO_36.0721_-79.9153_15_180.csv)

New Loadshape.GSO_36.0721_-79.9153_25_90 npts= 35040 interval=0.25 mult = (file=../../../../profiles/GSO_36.0721_-79.9153_25_90.csv)

New Loadshape.GSO_36.1090_-79.9153_55_270 npts= 35040 interval=0.25 mult = (file=../../../../profiles/GSO_36.1090_-79.9153_55_270.csv)

New Loadshape.GSO_36.0721_-79.9153_25_180 npts= 35040 interval=0.25 mult = (file=../../../../profiles/GSO_36.0721_-79.9153_25_180.csv)

New Loadshape.GSO_36.0721_-79.9153_35_90 npts= 35040 interval=0.25 mult = (file=../../../../profiles/GSO_36.0721_-79.9153_35_90.csv)

New Loadshape.GSO_36.0721_-79.9153_15_90 npts= 35040 interval=0.25 mult = (file=../../../../profiles/GSO_36.0721_-79.9153_15_90.csv)

New Loadshape.GSO_36.0721_-79.9153_35_225 npts= 35040 interval=0.25 mult = (file=../../../../profiles/GSO_36.0721_-79.9153_35_225.csv)

New Loadshape.GSO_36.1090_-79.9153_55_180 npts= 35040 interval=0.25 mult = (file=../../../../profiles/GSO_36.1090_-79.9153_55_180.csv)

New Loadshape.GSO_36.0721_-79.9153_25_225 npts= 35040 interval=0.25 mult = (file=../../../../profiles/GSO_36.0721_-79.9153_25_225.csv)

New Loadshape.GSO_36.1090_-79.9153_55_135 npts= 35040 interval=0.25 mult = (file=../../../../profiles/GSO_36.1090_-79.9153_55_135.csv)

New Loadshape.GSO_36.0721_-79.9153_15_225 npts= 35040 interval=0.25 mult = (file=../../../../profiles/GSO_36.0721_-79.9153_15_225.csv)

New Loadshape.GSO_36.0721_-79.9153_35_135 npts= 35040 interval=0.25 mult = (file=../../../../profiles/GSO_36.0721_-79.9153_35_135.csv)

New Loadshape.GSO_36.0721_-79.9153_25_270 npts= 35040 interval=0.25 mult = (file=../../../../profiles/GSO_36.0721_-79.9153_25_270.csv)

New Loadshape.GSO_36.0721_-79.9153_15_270 npts= 35040 interval=0.25 mult = (file=../../../../profiles/GSO_36.0721_-79.9153_15_270.csv)

New Loadshape.GSO_36.0721_-79.9153_45_225 npts= 35040 interval=0.25 mult = (file=../../../../profiles/GSO_36.0721_-79.9153_45_225.csv)

New Loadshape.GSO_36.0721_-79.9153_45_270 npts= 35040 interval=0.25 mult = (file=../../../../profiles/GSO_36.0721_-79.9153_45_270.csv)

New Loadshape.res_kw_829_pu npts= 35040 interval=0.25 mult = (file=../../../../profiles/res_kw_829_pu.csv) qmult = (file=../../../../profiles/res_kvar_829_pu.csv)

New Loadshape.res_kw_1256_pu npts= 35040 interval=0.25 mult = (file=../../../../profiles/res_kw_1256_pu.csv) qmult = (file=../../../../profiles/res_kvar_1256_pu.csv)

New Loadshape.res_kw_457_pu npts= 35040 interval=0.25 mult = (file=../../../../profiles/res_kw_457_pu.csv) qmult = (file=../../../../profiles/res_kvar_457_pu.csv)

New Loadshape.res_kw_1067_pu npts= 35040 interval=0.25 mult = (file=../../../../profiles/res_kw_1067_pu.csv) qmult = (file=../../../../profiles/res_kvar_1067_pu.csv)

New Loadshape.res_kw_46_pu npts= 35040 interval=0.25 mult = (file=../../../../profiles/res_kw_46_pu.csv) qmult = (file=../../../../profiles/res_kvar_46_pu.csv)

New Loadshape.res_kw_416_pu npts= 35040 interval=0.25 mult = (file=../../../../profiles/res_kw_416_pu.csv) qmult = (file=../../../../profiles/res_kvar_416_pu.csv)

New Loadshape.res_kw_689_pu npts= 35040 interval=0.25 mult = (file=../../../../profiles/res_kw_689_pu.csv) qmult = (file=../../../../profiles/res_kvar_689_pu.csv)

New Loadshape.res_kw_209_pu npts= 35040 interval=0.25 mult = (file=../../../../profiles/res_kw_209_pu.csv) qmult = (file=../../../../profiles/res_kvar_209_pu.csv)

New Loadshape.res_kw_182_pu npts= 35040 interval=0.25 mult = (file=../../../../profiles/res_kw_182_pu.csv) qmult = (file=../../../../profiles/res_kvar_182_pu.csv)

New Loadshape.res_kw_93_pu npts= 35040 interval=0.25 mult = (file=../../../../profiles/res_kw_93_pu.csv) qmult = (file=../../../../profiles/res_kvar_93_pu.csv)

New Loadshape.res_kw_1042_pu npts= 35040 interval=0.25 mult = (file=../../../../profiles/res_kw_1042_pu.csv) qmult = (file=../../../../profiles/res_kvar_1042_pu.csv)

New Loadshape.res_kw_409_pu npts= 35040 interval=0.25 mult = (file=../../../../profiles/res_kw_409_pu.csv) qmult = (file=../../../../profiles/res_kvar_409_pu.csv)

New Loadshape.res_kw_532_pu npts= 35040 interval=0.25 mult = (file=../../../../profiles/res_kw_532_pu.csv) qmult = (file=../../../../profiles/res_kvar_532_pu.csv)

New Loadshape.res_kw_1186_pu npts= 35040 interval=0.25 mult = (file=../../../../profiles/res_kw_1186_pu.csv) qmult = (file=../../../../profiles/res_kvar_1186_pu.csv)

New Loadshape.res_kw_278_pu npts= 35040 interval=0.25 mult = (file=../../../../profiles/res_kw_278_pu.csv) qmult = (file=../../../../profiles/res_kvar_278_pu.csv)

New Loadshape.res_kw_664_pu npts= 35040 interval=0.25 mult = (file=../../../../profiles/res_kw_664_pu.csv) qmult = (file=../../../../profiles/res_kvar_664_pu.csv)

New Loadshape.res_kw_504_pu npts= 35040 interval=0.25 mult = (file=../../../../profiles/res_kw_504_pu.csv) qmult = (file=../../../../profiles/res_kvar_504_pu.csv)

New Loadshape.res_kw_517_pu npts= 35040 interval=0.25 mult = (file=../../../../profiles/res_kw_517_pu.csv) qmult = (file=../../../../profiles/res_kvar_517_pu.csv)

New Loadshape.res_kw_314_pu npts= 35040 interval=0.25 mult = (file=../../../../profiles/res_kw_314_pu.csv) qmult = (file=../../../../profiles/res_kvar_314_pu.csv)

New Loadshape.res_kw_305_pu npts= 35040 interval=0.25 mult = (file=../../../../profiles/res_kw_305_pu.csv) qmult = (file=../../../../profiles/res_kvar_305_pu.csv)

New Loadshape.res_kw_355_pu npts= 35040 interval=0.25 mult = (file=../../../../profiles/res_kw_355_pu.csv) qmult = (file=../../../../profiles/res_kvar_355_pu.csv)

New Loadshape.res_kw_512_pu npts= 35040 interval=0.25 mult = (file=../../../../profiles/res_kw_512_pu.csv) qmult = (file=../../../../profiles/res_kvar_512_pu.csv)

New Loadshape.res_kw_245_pu npts= 35040 interval=0.25 mult = (file=../../../../profiles/res_kw_245_pu.csv) qmult = (file=../../../../profiles/res_kvar_245_pu.csv)

New Loadshape.res_kw_599_pu npts= 35040 interval=0.25 mult = (file=../../../../profiles/res_kw_599_pu.csv) qmult = (file=../../../../profiles/res_kvar_599_pu.csv)

New Loadshape.res_kw_33_pu npts= 35040 interval=0.25 mult = (file=../../../../profiles/res_kw_33_pu.csv) qmult = (file=../../../../profiles/res_kvar_33_pu.csv)

New Loadshape.res_kw_822_pu npts= 35040 interval=0.25 mult = (file=../../../../profiles/res_kw_822_pu.csv) qmult = (file=../../../../profiles/res_kvar_822_pu.csv)

New Loadshape.res_kw_231_pu npts= 35040 interval=0.25 mult = (file=../../../../profiles/res_kw_231_pu.csv) qmult = (file=../../../../profiles/res_kvar_231_pu.csv)

New Loadshape.res_kw_1099_pu npts= 35040 interval=0.25 mult = (file=../../../../profiles/res_kw_1099_pu.csv) qmult = (file=../../../../profiles/res_kvar_1099_pu.csv)

New Loadshape.res_kw_280_pu npts= 35040 interval=0.25 mult = (file=../../../../profiles/res_kw_280_pu.csv) qmult = (file=../../../../profiles/res_kvar_280_pu.csv)

New Loadshape.res_kw_1228_pu npts= 35040 interval=0.25 mult = (file=../../../../profiles/res_kw_1228_pu.csv) qmult = (file=../../../../profiles/res_kvar_1228_pu.csv)

New Loadshape.res_kw_40_pu npts= 35040 interval=0.25 mult = (file=../../../../profiles/res_kw_40_pu.csv) qmult = (file=../../../../profiles/res_kvar_40_pu.csv)

New Loadshape.res_kw_24_pu npts= 35040 interval=0.25 mult = (file=../../../../profiles/res_kw_24_pu.csv) qmult = (file=../../../../profiles/res_kvar_24_pu.csv)

New Loadshape.res_kw_1037_pu npts= 35040 interval=0.25 mult = (file=../../../../profiles/res_kw_1037_pu.csv) qmult = (file=../../../../profiles/res_kvar_1037_pu.csv)

New Loadshape.res_kw_522_pu npts= 35040 interval=0.25 mult = (file=../../../../profiles/res_kw_522_pu.csv) qmult = (file=../../../../profiles/res_kvar_522_pu.csv)

New Loadshape.res_kw_887_pu npts= 35040 interval=0.25 mult = (file=../../../../profiles/res_kw_887_pu.csv) qmult = (file=../../../../profiles/res_kvar_887_pu.csv)

New Loadshape.res_kw_558_pu npts= 35040 interval=0.25 mult = (file=../../../../profiles/res_kw_558_pu.csv) qmult = (file=../../../../profiles/res_kvar_558_pu.csv)

New Loadshape.res_kw_1205_pu npts= 35040 interval=0.25 mult = (file=../../../../profiles/res_kw_1205_pu.csv) qmult = (file=../../../../profiles/res_kvar_1205_pu.csv)

New Loadshape.res_kw_1160_pu npts= 35040 interval=0.25 mult = (file=../../../../profiles/res_kw_1160_pu.csv) qmult = (file=../../../../profiles/res_kvar_1160_pu.csv)

New Loadshape.res_kw_861_pu npts= 35040 interval=0.25 mult = (file=../../../../profiles/res_kw_861_pu.csv) qmult = (file=../../../../profiles/res_kvar_861_pu.csv)

New Loadshape.res_kw_617_pu npts= 35040 interval=0.25 mult = (file=../../../../profiles/res_kw_617_pu.csv) qmult = (file=../../../../profiles/res_kvar_617_pu.csv)

New Loadshape.res_kw_1023_pu npts= 35040 interval=0.25 mult = (file=../../../../profiles/res_kw_1023_pu.csv) qmult = (file=../../../../profiles/res_kvar_1023_pu.csv)

New Loadshape.res_kw_695_pu npts= 35040 interval=0.25 mult = (file=../../../../profiles/res_kw_695_pu.csv) qmult = (file=../../../../profiles/res_kvar_695_pu.csv)

New Loadshape.res_kw_4_pu npts= 35040 interval=0.25 mult = (file=../../../../profiles/res_kw_4_pu.csv) qmult = (file=../../../../profiles/res_kvar_4_pu.csv)

New Loadshape.res_kw_261_pu npts= 35040 interval=0.25 mult = (file=../../../../profiles/res_kw_261_pu.csv) qmult = (file=../../../../profiles/res_kvar_261_pu.csv)

New Loadshape.res_kw_141_pu npts= 35040 interval=0.25 mult = (file=../../../../profiles/res_kw_141_pu.csv) qmult = (file=../../../../profiles/res_kvar_141_pu.csv)

New Loadshape.res_kw_1142_pu npts= 35040 interval=0.25 mult = (file=../../../../profiles/res_kw_1142_pu.csv) qmult = (file=../../../../profiles/res_kvar_1142_pu.csv)

New Loadshape.res_kw_1223_pu npts= 35040 interval=0.25 mult = (file=../../../../profiles/res_kw_1223_pu.csv) qmult = (file=../../../../profiles/res_kvar_1223_pu.csv)

New Loadshape.res_kw_319_pu npts= 35040 interval=0.25 mult = (file=../../../../profiles/res_kw_319_pu.csv) qmult = (file=../../../../profiles/res_kvar_319_pu.csv)

New Loadshape.res_kw_203_pu npts= 35040 interval=0.25 mult = (file=../../../../profiles/res_kw_203_pu.csv) qmult = (file=../../../../profiles/res_kvar_203_pu.csv)

New Loadshape.res_kw_250_pu npts= 35040 interval=0.25 mult = (file=../../../../profiles/res_kw_250_pu.csv) qmult = (file=../../../../profiles/res_kvar_250_pu.csv)

New Loadshape.res_kw_523_pu npts= 35040 interval=0.25 mult = (file=../../../../profiles/res_kw_523_pu.csv) qmult = (file=../../../../profiles/res_kvar_523_pu.csv)

New Loadshape.res_kw_823_pu npts= 35040 interval=0.25 mult = (file=../../../../profiles/res_kw_823_pu.csv) qmult = (file=../../../../profiles/res_kvar_823_pu.csv)

New Loadshape.res_kw_1083_pu npts= 35040 interval=0.25 mult = (file=../../../../profiles/res_kw_1083_pu.csv) qmult = (file=../../../../profiles/res_kvar_1083_pu.csv)

New Loadshape.res_kw_959_pu npts= 35040 interval=0.25 mult = (file=../../../../profiles/res_kw_959_pu.csv) qmult = (file=../../../../profiles/res_kvar_959_pu.csv)

New Loadshape.res_kw_331_pu npts= 35040 interval=0.25 mult = (file=../../../../profiles/res_kw_331_pu.csv) qmult = (file=../../../../profiles/res_kvar_331_pu.csv)

New Loadshape.res_kw_30_pu npts= 35040 interval=0.25 mult = (file=../../../../profiles/res_kw_30_pu.csv) qmult = (file=../../../../profiles/res_kvar_30_pu.csv)

New Loadshape.res_kw_452_pu npts= 35040 interval=0.25 mult = (file=../../../../profiles/res_kw_452_pu.csv) qmult = (file=../../../../profiles/res_kvar_452_pu.csv)

New Loadshape.res_kw_597_pu npts= 35040 interval=0.25 mult = (file=../../../../profiles/res_kw_597_pu.csv) qmult = (file=../../../../profiles/res_kvar_597_pu.csv)

New Loadshape.res_kw_963_pu npts= 35040 interval=0.25 mult = (file=../../../../profiles/res_kw_963_pu.csv) qmult = (file=../../../../profiles/res_kvar_963_pu.csv)

New Loadshape.res_kw_1258_pu npts= 35040 interval=0.25 mult = (file=../../../../profiles/res_kw_1258_pu.csv) qmult = (file=../../../../profiles/res_kvar_1258_pu.csv)

New Loadshape.res_kw_540_pu npts= 35040 interval=0.25 mult = (file=../../../../profiles/res_kw_540_pu.csv) qmult = (file=../../../../profiles/res_kvar_540_pu.csv)

New Loadshape.res_kw_1273_pu npts= 35040 interval=0.25 mult = (file=../../../../profiles/res_kw_1273_pu.csv) qmult = (file=../../../../profiles/res_kvar_1273_pu.csv)

New Loadshape.res_kw_97_pu npts= 35040 interval=0.25 mult = (file=../../../../profiles/res_kw_97_pu.csv) qmult = (file=../../../../profiles/res_kvar_97_pu.csv)

New Loadshape.res_kw_842_pu npts= 35040 interval=0.25 mult = (file=../../../../profiles/res_kw_842_pu.csv) qmult = (file=../../../../profiles/res_kvar_842_pu.csv)

New Loadshape.res_kw_645_pu npts= 35040 interval=0.25 mult = (file=../../../../profiles/res_kw_645_pu.csv) qmult = (file=../../../../profiles/res_kvar_645_pu.csv)

New Loadshape.res_kw_1113_pu npts= 35040 interval=0.25 mult = (file=../../../../profiles/res_kw_1113_pu.csv) qmult = (file=../../../../profiles/res_kvar_1113_pu.csv)

New Loadshape.res_kw_469_pu npts= 35040 interval=0.25 mult = (file=../../../../profiles/res_kw_469_pu.csv) qmult = (file=../../../../profiles/res_kvar_469_pu.csv)

New Loadshape.res_kw_772_pu npts= 35040 interval=0.25 mult = (file=../../../../profiles/res_kw_772_pu.csv) qmult = (file=../../../../profiles/res_kvar_772_pu.csv)

New Loadshape.res_kw_938_pu npts= 35040 interval=0.25 mult = (file=../../../../profiles/res_kw_938_pu.csv) qmult = (file=../../../../profiles/res_kvar_938_pu.csv)

New Loadshape.res_kw_1149_pu npts= 35040 interval=0.25 mult = (file=../../../../profiles/res_kw_1149_pu.csv) qmult = (file=../../../../profiles/res_kvar_1149_pu.csv)

New Loadshape.res_kw_62_pu npts= 35040 interval=0.25 mult = (file=../../../../profiles/res_kw_62_pu.csv) qmult = (file=../../../../profiles/res_kvar_62_pu.csv)

New Loadshape.res_kw_853_pu npts= 35040 interval=0.25 mult = (file=../../../../profiles/res_kw_853_pu.csv) qmult = (file=../../../../profiles/res_kvar_853_pu.csv)

New Loadshape.res_kw_327_pu npts= 35040 interval=0.25 mult = (file=../../../../profiles/res_kw_327_pu.csv) qmult = (file=../../../../profiles/res_kvar_327_pu.csv)

New Loadshape.res_kw_431_pu npts= 35040 interval=0.25 mult = (file=../../../../profiles/res_kw_431_pu.csv) qmult = (file=../../../../profiles/res_kvar_431_pu.csv)

New Loadshape.res_kw_332_pu npts= 35040 interval=0.25 mult = (file=../../../../profiles/res_kw_332_pu.csv) qmult = (file=../../../../profiles/res_kvar_332_pu.csv)

New Loadshape.res_kw_1084_pu npts= 35040 interval=0.25 mult = (file=../../../../profiles/res_kw_1084_pu.csv) qmult = (file=../../../../profiles/res_kvar_1084_pu.csv)

New Loadshape.res_kw_41_pu npts= 35040 interval=0.25 mult = (file=../../../../profiles/res_kw_41_pu.csv) qmult = (file=../../../../profiles/res_kvar_41_pu.csv)

New Loadshape.res_kw_1229_pu npts= 35040 interval=0.25 mult = (file=../../../../profiles/res_kw_1229_pu.csv) qmult = (file=../../../../profiles/res_kvar_1229_pu.csv)

New Loadshape.res_kw_470_pu npts= 35040 interval=0.25 mult = (file=../../../../profiles/res_kw_470_pu.csv) qmult = (file=../../../../profiles/res_kvar_470_pu.csv)

New Loadshape.res_kw_1166_pu npts= 35040 interval=0.25 mult = (file=../../../../profiles/res_kw_1166_pu.csv) qmult = (file=../../../../profiles/res_kvar_1166_pu.csv)

New Loadshape.res_kw_38_pu npts= 35040 interval=0.25 mult = (file=../../../../profiles/res_kw_38_pu.csv) qmult = (file=../../../../profiles/res_kvar_38_pu.csv)

New Loadshape.res_kw_564_pu npts= 35040 interval=0.25 mult = (file=../../../../profiles/res_kw_564_pu.csv) qmult = (file=../../../../profiles/res_kvar_564_pu.csv)

New Loadshape.res_kw_407_pu npts= 35040 interval=0.25 mult = (file=../../../../profiles/res_kw_407_pu.csv) qmult = (file=../../../../profiles/res_kvar_407_pu.csv)

New Loadshape.res_kw_548_pu npts= 35040 interval=0.25 mult = (file=../../../../profiles/res_kw_548_pu.csv) qmult = (file=../../../../profiles/res_kvar_548_pu.csv)

New Loadshape.res_kw_169_pu npts= 35040 interval=0.25 mult = (file=../../../../profiles/res_kw_169_pu.csv) qmult = (file=../../../../profiles/res_kvar_169_pu.csv)

New Loadshape.res_kw_324_pu npts= 35040 interval=0.25 mult = (file=../../../../profiles/res_kw_324_pu.csv) qmult = (file=../../../../profiles/res_kvar_324_pu.csv)

New Loadshape.res_kw_283_pu npts= 35040 interval=0.25 mult = (file=../../../../profiles/res_kw_283_pu.csv) qmult = (file=../../../../profiles/res_kvar_283_pu.csv)

New Loadshape.res_kw_879_pu npts= 35040 interval=0.25 mult = (file=../../../../profiles/res_kw_879_pu.csv) qmult = (file=../../../../profiles/res_kvar_879_pu.csv)

New Loadshape.res_kw_307_pu npts= 35040 interval=0.25 mult = (file=../../../../profiles/res_kw_307_pu.csv) qmult = (file=../../../../profiles/res_kvar_307_pu.csv)

New Loadshape.res_kw_1194_pu npts= 35040 interval=0.25 mult = (file=../../../../profiles/res_kw_1194_pu.csv) qmult = (file=../../../../profiles/res_kvar_1194_pu.csv)

New Loadshape.res_kw_945_pu npts= 35040 interval=0.25 mult = (file=../../../../profiles/res_kw_945_pu.csv) qmult = (file=../../../../profiles/res_kvar_945_pu.csv)

New Loadshape.res_kw_146_pu npts= 35040 interval=0.25 mult = (file=../../../../profiles/res_kw_146_pu.csv) qmult = (file=../../../../profiles/res_kvar_146_pu.csv)

New Loadshape.res_kw_317_pu npts= 35040 interval=0.25 mult = (file=../../../../profiles/res_kw_317_pu.csv) qmult = (file=../../../../profiles/res_kvar_317_pu.csv)

New Loadshape.res_kw_464_pu npts= 35040 interval=0.25 mult = (file=../../../../profiles/res_kw_464_pu.csv) qmult = (file=../../../../profiles/res_kvar_464_pu.csv)

New Loadshape.res_kw_421_pu npts= 35040 interval=0.25 mult = (file=../../../../profiles/res_kw_421_pu.csv) qmult = (file=../../../../profiles/res_kvar_421_pu.csv)

New Loadshape.res_kw_267_pu npts= 35040 interval=0.25 mult = (file=../../../../profiles/res_kw_267_pu.csv) qmult = (file=../../../../profiles/res_kvar_267_pu.csv)

New Loadshape.res_kw_236_pu npts= 35040 interval=0.25 mult = (file=../../../../profiles/res_kw_236_pu.csv) qmult = (file=../../../../profiles/res_kvar_236_pu.csv)

New Loadshape.res_kw_100_pu npts= 35040 interval=0.25 mult = (file=../../../../profiles/res_kw_100_pu.csv) qmult = (file=../../../../profiles/res_kvar_100_pu.csv)

New Loadshape.res_kw_7_pu npts= 35040 interval=0.25 mult = (file=../../../../profiles/res_kw_7_pu.csv) qmult = (file=../../../../profiles/res_kvar_7_pu.csv)

New Loadshape.res_kw_454_pu npts= 35040 interval=0.25 mult = (file=../../../../profiles/res_kw_454_pu.csv) qmult = (file=../../../../profiles/res_kvar_454_pu.csv)

New Loadshape.res_kw_863_pu npts= 35040 interval=0.25 mult = (file=../../../../profiles/res_kw_863_pu.csv) qmult = (file=../../../../profiles/res_kvar_863_pu.csv)

New Loadshape.res_kw_199_pu npts= 35040 interval=0.25 mult = (file=../../../../profiles/res_kw_199_pu.csv) qmult = (file=../../../../profiles/res_kvar_199_pu.csv)

New Loadshape.res_kw_1157_pu npts= 35040 interval=0.25 mult = (file=../../../../profiles/res_kw_1157_pu.csv) qmult = (file=../../../../profiles/res_kvar_1157_pu.csv)

New Loadshape.res_kw_906_pu npts= 35040 interval=0.25 mult = (file=../../../../profiles/res_kw_906_pu.csv) qmult = (file=../../../../profiles/res_kvar_906_pu.csv)

New Loadshape.res_kw_76_pu npts= 35040 interval=0.25 mult = (file=../../../../profiles/res_kw_76_pu.csv) qmult = (file=../../../../profiles/res_kvar_76_pu.csv)

New Loadshape.res_kw_843_pu npts= 35040 interval=0.25 mult = (file=../../../../profiles/res_kw_843_pu.csv) qmult = (file=../../../../profiles/res_kvar_843_pu.csv)

New Loadshape.res_kw_968_pu npts= 35040 interval=0.25 mult = (file=../../../../profiles/res_kw_968_pu.csv) qmult = (file=../../../../profiles/res_kvar_968_pu.csv)

New Loadshape.res_kw_1176_pu npts= 35040 interval=0.25 mult = (file=../../../../profiles/res_kw_1176_pu.csv) qmult = (file=../../../../profiles/res_kvar_1176_pu.csv)

New Loadshape.res_kw_825_pu npts= 35040 interval=0.25 mult = (file=../../../../profiles/res_kw_825_pu.csv) qmult = (file=../../../../profiles/res_kvar_825_pu.csv)

New Loadshape.res_kw_1115_pu npts= 35040 interval=0.25 mult = (file=../../../../profiles/res_kw_1115_pu.csv) qmult = (file=../../../../profiles/res_kvar_1115_pu.csv)

New Loadshape.res_kw_207_pu npts= 35040 interval=0.25 mult = (file=../../../../profiles/res_kw_207_pu.csv) qmult = (file=../../../../profiles/res_kvar_207_pu.csv)

New Loadshape.res_kw_229_pu npts= 35040 interval=0.25 mult = (file=../../../../profiles/res_kw_229_pu.csv) qmult = (file=../../../../profiles/res_kvar_229_pu.csv)

New Loadshape.res_kw_462_pu npts= 35040 interval=0.25 mult = (file=../../../../profiles/res_kw_462_pu.csv) qmult = (file=../../../../profiles/res_kvar_462_pu.csv)

New Loadshape.res_kw_162_pu npts= 35040 interval=0.25 mult = (file=../../../../profiles/res_kw_162_pu.csv) qmult = (file=../../../../profiles/res_kvar_162_pu.csv)

New Loadshape.res_kw_380_pu npts= 35040 interval=0.25 mult = (file=../../../../profiles/res_kw_380_pu.csv) qmult = (file=../../../../profiles/res_kvar_380_pu.csv)

New Loadshape.res_kw_263_pu npts= 35040 interval=0.25 mult = (file=../../../../profiles/res_kw_263_pu.csv) qmult = (file=../../../../profiles/res_kvar_263_pu.csv)

New Loadshape.res_kw_20_pu npts= 35040 interval=0.25 mult = (file=../../../../profiles/res_kw_20_pu.csv) qmult = (file=../../../../profiles/res_kvar_20_pu.csv)

New Loadshape.res_kw_1104_pu npts= 35040 interval=0.25 mult = (file=../../../../profiles/res_kw_1104_pu.csv) qmult = (file=../../../../profiles/res_kvar_1104_pu.csv)

New Loadshape.res_kw_461_pu npts= 35040 interval=0.25 mult = (file=../../../../profiles/res_kw_461_pu.csv) qmult = (file=../../../../profiles/res_kvar_461_pu.csv)

New Loadshape.res_kw_208_pu npts= 35040 interval=0.25 mult = (file=../../../../profiles/res_kw_208_pu.csv) qmult = (file=../../../../profiles/res_kvar_208_pu.csv)

New Loadshape.res_kw_132_pu npts= 35040 interval=0.25 mult = (file=../../../../profiles/res_kw_132_pu.csv) qmult = (file=../../../../profiles/res_kvar_132_pu.csv)

New Loadshape.res_kw_598_pu npts= 35040 interval=0.25 mult = (file=../../../../profiles/res_kw_598_pu.csv) qmult = (file=../../../../profiles/res_kvar_598_pu.csv)

New Loadshape.res_kw_1105_pu npts= 35040 interval=0.25 mult = (file=../../../../profiles/res_kw_1105_pu.csv) qmult = (file=../../../../profiles/res_kvar_1105_pu.csv)

New Loadshape.res_kw_362_pu npts= 35040 interval=0.25 mult = (file=../../../../profiles/res_kw_362_pu.csv) qmult = (file=../../../../profiles/res_kvar_362_pu.csv)

New Loadshape.res_kw_670_pu npts= 35040 interval=0.25 mult = (file=../../../../profiles/res_kw_670_pu.csv) qmult = (file=../../../../profiles/res_kvar_670_pu.csv)

New Loadshape.res_kw_98_pu npts= 35040 interval=0.25 mult = (file=../../../../profiles/res_kw_98_pu.csv) qmult = (file=../../../../profiles/res_kvar_98_pu.csv)

New Loadshape.res_kw_653_pu npts= 35040 interval=0.25 mult = (file=../../../../profiles/res_kw_653_pu.csv) qmult = (file=../../../../profiles/res_kvar_653_pu.csv)

New Loadshape.res_kw_780_pu npts= 35040 interval=0.25 mult = (file=../../../../profiles/res_kw_780_pu.csv) qmult = (file=../../../../profiles/res_kvar_780_pu.csv)

New Loadshape.res_kw_222_pu npts= 35040 interval=0.25 mult = (file=../../../../profiles/res_kw_222_pu.csv) qmult = (file=../../../../profiles/res_kvar_222_pu.csv)

New Loadshape.res_kw_739_pu npts= 35040 interval=0.25 mult = (file=../../../../profiles/res_kw_739_pu.csv) qmult = (file=../../../../profiles/res_kvar_739_pu.csv)

New Loadshape.res_kw_39_pu npts= 35040 interval=0.25 mult = (file=../../../../profiles/res_kw_39_pu.csv) qmult = (file=../../../../profiles/res_kvar_39_pu.csv)

New Loadshape.res_kw_1220_pu npts= 35040 interval=0.25 mult = (file=../../../../profiles/res_kw_1220_pu.csv) qmult = (file=../../../../profiles/res_kvar_1220_pu.csv)

New Loadshape.res_kw_211_pu npts= 35040 interval=0.25 mult = (file=../../../../profiles/res_kw_211_pu.csv) qmult = (file=../../../../profiles/res_kvar_211_pu.csv)

New Loadshape.res_kw_807_pu npts= 35040 interval=0.25 mult = (file=../../../../profiles/res_kw_807_pu.csv) qmult = (file=../../../../profiles/res_kvar_807_pu.csv)

New Loadshape.res_kw_798_pu npts= 35040 interval=0.25 mult = (file=../../../../profiles/res_kw_798_pu.csv) qmult = (file=../../../../profiles/res_kvar_798_pu.csv)

New Loadshape.res_kw_473_pu npts= 35040 interval=0.25 mult = (file=../../../../profiles/res_kw_473_pu.csv) qmult = (file=../../../../profiles/res_kvar_473_pu.csv)

New Loadshape.res_kw_663_pu npts= 35040 interval=0.25 mult = (file=../../../../profiles/res_kw_663_pu.csv) qmult = (file=../../../../profiles/res_kvar_663_pu.csv)

New Loadshape.res_kw_216_pu npts= 35040 interval=0.25 mult = (file=../../../../profiles/res_kw_216_pu.csv) qmult = (file=../../../../profiles/res_kvar_216_pu.csv)

New Loadshape.res_kw_205_pu npts= 35040 interval=0.25 mult = (file=../../../../profiles/res_kw_205_pu.csv) qmult = (file=../../../../profiles/res_kvar_205_pu.csv)

New Loadshape.res_kw_627_pu npts= 35040 interval=0.25 mult = (file=../../../../profiles/res_kw_627_pu.csv) qmult = (file=../../../../profiles/res_kvar_627_pu.csv)

New Loadshape.res_kw_707_pu npts= 35040 interval=0.25 mult = (file=../../../../profiles/res_kw_707_pu.csv) qmult = (file=../../../../profiles/res_kvar_707_pu.csv)

New Loadshape.res_kw_1153_pu npts= 35040 interval=0.25 mult = (file=../../../../profiles/res_kw_1153_pu.csv) qmult = (file=../../../../profiles/res_kvar_1153_pu.csv)

New Loadshape.res_kw_846_pu npts= 35040 interval=0.25 mult = (file=../../../../profiles/res_kw_846_pu.csv) qmult = (file=../../../../profiles/res_kvar_846_pu.csv)

New Loadshape.res_kw_1276_pu npts= 35040 interval=0.25 mult = (file=../../../../profiles/res_kw_1276_pu.csv) qmult = (file=../../../../profiles/res_kvar_1276_pu.csv)

New Loadshape.res_kw_534_pu npts= 35040 interval=0.25 mult = (file=../../../../profiles/res_kw_534_pu.csv) qmult = (file=../../../../profiles/res_kvar_534_pu.csv)

New Loadshape.res_kw_621_pu npts= 35040 interval=0.25 mult = (file=../../../../profiles/res_kw_621_pu.csv) qmult = (file=../../../../profiles/res_kvar_621_pu.csv)

New Loadshape.res_kw_453_pu npts= 35040 interval=0.25 mult = (file=../../../../profiles/res_kw_453_pu.csv) qmult = (file=../../../../profiles/res_kvar_453_pu.csv)

New Loadshape.res_kw_873_pu npts= 35040 interval=0.25 mult = (file=../../../../profiles/res_kw_873_pu.csv) qmult = (file=../../../../profiles/res_kvar_873_pu.csv)