New Load.load_p1ulv1_1 conn=wye bus1=p1ulv1.1 kV=0.12 Vminpu=0.8 Vmaxpu=1.2 model=1 kW=3.3641909207712115 kvar=0.9284266244461494 Phases=1 yearly=res_kw_523_pu

New Load.load_p1ulv1_2 conn=wye bus1=p1ulv1.2 kV=0.12 Vminpu=0.8 Vmaxpu=1.2 model=1 kW=3.3641909207712115 kvar=0.9284266244461494 Phases=1 yearly=res_kw_523_pu

New Load.load_p1ulv2_1 conn=wye bus1=p1ulv2.1 kV=0.12 Vminpu=0.8 Vmaxpu=1.2 model=1 kW=2.0380250144225394 kvar=0.5847764991219453 Phases=1 yearly=com_kw_15124_pu

New Load.load_p1ulv2_2 conn=wye bus1=p1ulv2.2 kV=0.12 Vminpu=0.8 Vmaxpu=1.2 model=1 kW=2.0380250144225394 kvar=0.5847764991219453 Phases=1 yearly=com_kw_15124_pu

New Load.load_p1ulv3_1 conn=wye bus1=p1ulv3.1 kV=0.12 Vminpu=0.8 Vmaxpu=1.2 model=1 kW=6.2419949477893475 kvar=3.2518916743102033 Phases=1 yearly=res_kw_748_pu

New Load.load_p1ulv3_2 conn=wye bus1=p1ulv3.2 kV=0.12 Vminpu=0.8 Vmaxpu=1.2 model=1 kW=6.2419949477893475 kvar=3.2518916743102033 Phases=1 yearly=res_kw_748_pu

New Load.load_p1ulv4_1 conn=wye bus1=p1ulv4.1 kV=0.12 Vminpu=0.8 Vmaxpu=1.2 model=1 kW=2.5047232020051142 kvar=0.6800922265265169 Phases=1 yearly=res_kw_162_pu

New Load.load_p1ulv4_2 conn=wye bus1=p1ulv4.2 kV=0.12 Vminpu=0.8 Vmaxpu=1.2 model=1 kW=2.5047232020051142 kvar=0.6800922265265169 Phases=1 yearly=res_kw_162_pu

New Load.load_p1ulv5_1 conn=wye bus1=p1ulv5.1 kV=0.12 Vminpu=0.8 Vmaxpu=1.2 model=1 kW=4.78815623948431 kvar=1.2110296754961107 Phases=1 yearly=res_kw_842_pu

New Load.load_p1ulv5_2 conn=wye bus1=p1ulv5.2 kV=0.12 Vminpu=0.8 Vmaxpu=1.2 model=1 kW=4.78815623948431 kvar=1.2110296754961107 Phases=1 yearly=res_kw_842_pu

New Load.load_p1ulv6_1 conn=wye bus1=p1ulv6.1 kV=0.12 Vminpu=0.8 Vmaxpu=1.2 model=1 kW=4.788649591238137 kvar=1.023651375705972 Phases=1 yearly=res_kw_512_pu

New Load.load_p1ulv6_2 conn=wye bus1=p1ulv6.2 kV=0.12 Vminpu=0.8 Vmaxpu=1.2 model=1 kW=4.788649591238137 kvar=1.023651375705972 Phases=1 yearly=res_kw_512_pu

New Load.load_p1ulv7_1 conn=wye bus1=p1ulv7.1 kV=0.12 Vminpu=0.8 Vmaxpu=1.2 model=1 kW=5.991917116566147 kvar=1.6692124001399427 Phases=1 yearly=res_kw_314_pu

New Load.load_p1ulv7_2 conn=wye bus1=p1ulv7.2 kV=0.12 Vminpu=0.8 Vmaxpu=1.2 model=1 kW=5.991917116566147 kvar=1.6692124001399427 Phases=1 yearly=res_kw_314_pu

New Load.load_p1ulv8_1 conn=wye bus1=p1ulv8.1 kV=0.12 Vminpu=0.8 Vmaxpu=1.2 model=1 kW=3.789884331965197 kvar=1.0036576715582408 Phases=1 yearly=res_kw_670_pu

New Load.load_p1ulv8_2 conn=wye bus1=p1ulv8.2 kV=0.12 Vminpu=0.8 Vmaxpu=1.2 model=1 kW=3.789884331965197 kvar=1.0036576715582408 Phases=1 yearly=res_kw_670_pu

New Load.load_p1ulv9_1 conn=wye bus1=p1ulv9.1 kV=0.12 Vminpu=0.8 Vmaxpu=1.2 model=1 kW=9.666699253995569 kvar=2.090221480167897 Phases=1 yearly=res_kw_46_pu

New Load.load_p1ulv9_2 conn=wye bus1=p1ulv9.2 kV=0.12 Vminpu=0.8 Vmaxpu=1.2 model=1 kW=9.666699253995569 kvar=2.090221480167897 Phases=1 yearly=res_kw_46_pu

New Load.load_p1ulv10_1 conn=wye bus1=p1ulv10.1 kV=0.12 Vminpu=0.8 Vmaxpu=1.2 model=1 kW=3.3701610259235064 kvar=1.065454990641787 Phases=1 yearly=res_kw_1037_pu

New Load.load_p1ulv10_2 conn=wye bus1=p1ulv10.2 kV=0.12 Vminpu=0.8 Vmaxpu=1.2 model=1 kW=3.3701610259235064 kvar=1.065454990641787 Phases=1 yearly=res_kw_1037_pu

New Load.load_p1ulv11_1 conn=wye bus1=p1ulv11.1 kV=0.12 Vminpu=0.8 Vmaxpu=1.2 model=1 kW=4.788649591238137 kvar=1.023651375705972 Phases=1 yearly=res_kw_512_pu

New Load.load_p1ulv11_2 conn=wye bus1=p1ulv11.2 kV=0.12 Vminpu=0.8 Vmaxpu=1.2 model=1 kW=4.788649591238137 kvar=1.023651375705972 Phases=1 yearly=res_kw_512_pu

New Load.load_p1ulv12_1 conn=wye bus1=p1ulv12.1 kV=0.12 Vminpu=0.8 Vmaxpu=1.2 model=1 kW=2.6241521841182514 kvar=0.8429304779950015 Phases=1 yearly=res_kw_33_pu

New Load.load_p1ulv12_2 conn=wye bus1=p1ulv12.2 kV=0.12 Vminpu=0.8 Vmaxpu=1.2 model=1 kW=2.6241521841182514 kvar=0.8429304779950015 Phases=1 yearly=res_kw_33_pu

New Load.load_p1ulv13_1 conn=wye bus1=p1ulv13.1 kV=0.12 Vminpu=0.8 Vmaxpu=1.2 model=1 kW=2.1376631749204993 kvar=0.6218033466021168 Phases=1 yearly=res_kw_93_pu

New Load.load_p1ulv13_2 conn=wye bus1=p1ulv13.2 kV=0.12 Vminpu=0.8 Vmaxpu=1.2 model=1 kW=2.1376631749204993 kvar=0.6218033466021168 Phases=1 yearly=res_kw_93_pu

New Load.load_p1ulv14_1 conn=wye bus1=p1ulv14.1 kV=0.12 Vminpu=0.8 Vmaxpu=1.2 model=1 kW=2.4402285312138985 kvar=0.9342273883677934 Phases=1 yearly=res_kw_409_pu

New Load.load_p1ulv14_2 conn=wye bus1=p1ulv14.2 kV=0.12 Vminpu=0.8 Vmaxpu=1.2 model=1 kW=2.4402285312138985 kvar=0.9342273883677934 Phases=1 yearly=res_kw_409_pu

New Load.load_p1ulv15_1 conn=wye bus1=p1ulv15.1 kV=0.12 Vminpu=0.8 Vmaxpu=1.2 model=1 kW=3.6844020253442458 kvar=1.4451491397155931 Phases=1 yearly=res_kw_1258_pu

New Load.load_p1ulv15_2 conn=wye bus1=p1ulv15.2 kV=0.12 Vminpu=0.8 Vmaxpu=1.2 model=1 kW=3.6844020253442458 kvar=1.4451491397155931 Phases=1 yearly=res_kw_1258_pu

New Load.load_p1ulv16_1 conn=wye bus1=p1ulv16.1 kV=0.12 Vminpu=0.8 Vmaxpu=1.2 model=1 kW=5.991566549041883 kvar=1.4552695367795996 Phases=1 yearly=res_kw_1283_pu

New Load.load_p1ulv16_2 conn=wye bus1=p1ulv16.2 kV=0.12 Vminpu=0.8 Vmaxpu=1.2 model=1 kW=5.991566549041883 kvar=1.4552695367795996 Phases=1 yearly=res_kw_1283_pu

New Load.load_p1ulv17_1 conn=wye bus1=p1ulv17.1 kV=0.12 Vminpu=0.8 Vmaxpu=1.2 model=1 kW=5.466651771327982 kvar=1.2745975671486984 Phases=1 yearly=res_kw_933_pu

New Load.load_p1ulv17_2 conn=wye bus1=p1ulv17.2 kV=0.12 Vminpu=0.8 Vmaxpu=1.2 model=1 kW=5.466651771327982 kvar=1.2745975671486984 Phases=1 yearly=res_kw_933_pu

New Load.load_p1ulv18_1 conn=wye bus1=p1ulv18.1 kV=0.12 Vminpu=0.8 Vmaxpu=1.2 model=1 kW=3.8748715750127736 kvar=1.5614372175332516 Phases=1 yearly=res_kw_517_pu

New Load.load_p1ulv18_2 conn=wye bus1=p1ulv18.2 kV=0.12 Vminpu=0.8 Vmaxpu=1.2 model=1 kW=3.8748715750127736 kvar=1.5614372175332516 Phases=1 yearly=res_kw_517_pu

New Load.load_p1ulv19_1 conn=wye bus1=p1ulv19.1 kV=0.12 Vminpu=0.8 Vmaxpu=1.2 model=1 kW=4.788649591238137 kvar=1.023651375705972 Phases=1 yearly=res_kw_512_pu

New Load.load_p1ulv19_2 conn=wye bus1=p1ulv19.2 kV=0.12 Vminpu=0.8 Vmaxpu=1.2 model=1 kW=4.788649591238137 kvar=1.023651375705972 Phases=1 yearly=res_kw_512_pu

New Load.load_p1ulv20_1 conn=wye bus1=p1ulv20.1 kV=0.12 Vminpu=0.8 Vmaxpu=1.2 model=1 kW=4.066587428282395 kvar=0.7788614811484863 Phases=1 yearly=res_kw_887_pu

New Load.load_p1ulv20_2 conn=wye bus1=p1ulv20.2 kV=0.12 Vminpu=0.8 Vmaxpu=1.2 model=1 kW=4.066587428282395 kvar=0.7788614811484863 Phases=1 yearly=res_kw_887_pu

New Load.load_p1ulv21_1 conn=wye bus1=p1ulv21.1 kV=0.12 Vminpu=0.8 Vmaxpu=1.2 model=1 kW=2.9178485115923896 kvar=1.0715119122844614 Phases=1 yearly=res_kw_1149_pu

New Load.load_p1ulv21_2 conn=wye bus1=p1ulv21.2 kV=0.12 Vminpu=0.8 Vmaxpu=1.2 model=1 kW=2.9178485115923896 kvar=1.0715119122844614 Phases=1 yearly=res_kw_1149_pu

New Load.load_p1ulv22_1 conn=wye bus1=p1ulv22.1 kV=0.12 Vminpu=0.8 Vmaxpu=1.2 model=1 kW=3.472541999699669 kvar=0.6554351791829548 Phases=1 yearly=res_kw_1054_pu

New Load.load_p1ulv22_2 conn=wye bus1=p1ulv22.2 kV=0.12 Vminpu=0.8 Vmaxpu=1.2 model=1 kW=3.472541999699669 kvar=0.6554351791829548 Phases=1 yearly=res_kw_1054_pu

New Load.load_p1ulv23_1 conn=wye bus1=p1ulv23.1 kV=0.12 Vminpu=0.8 Vmaxpu=1.2 model=1 kW=5.821070015128854 kvar=0.7042127408061126 Phases=1 yearly=res_kw_884_pu

New Load.load_p1ulv23_2 conn=wye bus1=p1ulv23.2 kV=0.12 Vminpu=0.8 Vmaxpu=1.2 model=1 kW=5.821070015128854 kvar=0.7042127408061126 Phases=1 yearly=res_kw_884_pu

New Load.load_p1ulv24_1 conn=wye bus1=p1ulv24.1 kV=0.12 Vminpu=0.8 Vmaxpu=1.2 model=1 kW=3.8748715750127736 kvar=1.5614372175332516 Phases=1 yearly=res_kw_517_pu

New Load.load_p1ulv24_2 conn=wye bus1=p1ulv24.2 kV=0.12 Vminpu=0.8 Vmaxpu=1.2 model=1 kW=3.8748715750127736 kvar=1.5614372175332516 Phases=1 yearly=res_kw_517_pu

New Load.load_p1ulv25_1 conn=wye bus1=p1ulv25.1 kV=0.12 Vminpu=0.8 Vmaxpu=1.2 model=1 kW=4.725263221485363 kvar=1.0173757011563145 Phases=1 yearly=res_kw_752_pu

New Load.load_p1ulv25_2 conn=wye bus1=p1ulv25.2 kV=0.12 Vminpu=0.8 Vmaxpu=1.2 model=1 kW=4.725263221485363 kvar=1.0173757011563145 Phases=1 yearly=res_kw_752_pu

New Load.load_p1ulv26_1 conn=wye bus1=p1ulv26.1 kV=0.12 Vminpu=0.8 Vmaxpu=1.2 model=1 kW=1.8636614682402992 kvar=0.5015179682387616 Phases=1 yearly=res_kw_532_pu

New Load.load_p1ulv26_2 conn=wye bus1=p1ulv26.2 kV=0.12 Vminpu=0.8 Vmaxpu=1.2 model=1 kW=1.8636614682402992 kvar=0.5015179682387616 Phases=1 yearly=res_kw_532_pu

New Load.load_p1ulv27_1 conn=wye bus1=p1ulv27.1 kV=0.12 Vminpu=0.8 Vmaxpu=1.2 model=1 kW=10.375628907780863 kvar=4.616486224330442 Phases=1 yearly=res_kw_1267_pu

New Load.load_p1ulv27_2 conn=wye bus1=p1ulv27.2 kV=0.12 Vminpu=0.8 Vmaxpu=1.2 model=1 kW=10.375628907780863 kvar=4.616486224330442 Phases=1 yearly=res_kw_1267_pu

New Load.load_p1ulv28 conn=wye bus1=p1ulv28.1.2.3 kV=0.48 Vminpu=0.8 Vmaxpu=1.2 model=1 kW=53.064644724110536 kvar=2.9032074497511546 Phases=3 yearly=com_kw_14978_pu

New Load.load_p1ulv29_1 conn=wye bus1=p1ulv29.1 kV=0.12 Vminpu=0.8 Vmaxpu=1.2 model=1 kW=10.225918166274177 kvar=0.6457184214859216 Phases=1 yearly=com_kw_13413_pu

New Load.load_p1ulv29_2 conn=wye bus1=p1ulv29.2 kV=0.12 Vminpu=0.8 Vmaxpu=1.2 model=1 kW=10.225918166274177 kvar=0.6457184214859216 Phases=1 yearly=com_kw_13413_pu

New Load.load_p1ulv30 conn=wye bus1=p1ulv30.1.2.3 kV=0.48 Vminpu=0.8 Vmaxpu=1.2 model=1 kW=57.893441940524355 kvar=14.474131283359496 Phases=3 yearly=com_kw_14463_pu

New Load.load_p1ulv31_1 conn=wye bus1=p1ulv31.1 kV=0.12 Vminpu=0.8 Vmaxpu=1.2 model=1 kW=6.7994485266575735 kvar=1.935432821124365 Phases=1 yearly=com_kw_13734_pu

New Load.load_p1ulv31_2 conn=wye bus1=p1ulv31.2 kV=0.12 Vminpu=0.8 Vmaxpu=1.2 model=1 kW=6.7994485266575735 kvar=1.935432821124365 Phases=1 yearly=com_kw_13734_pu

New Load.load_p1ulv32_1 conn=wye bus1=p1ulv32.1 kV=0.12 Vminpu=0.8 Vmaxpu=1.2 model=1 kW=10.528818091330852 kvar=0.4855124572880847 Phases=1 yearly=com_kw_14682_pu

New Load.load_p1ulv32_2 conn=wye bus1=p1ulv32.2 kV=0.12 Vminpu=0.8 Vmaxpu=1.2 model=1 kW=10.528818091330852 kvar=0.4855124572880847 Phases=1 yearly=com_kw_14682_pu

New Load.load_p1ulv33_1 conn=wye bus1=p1ulv33.1 kV=0.12 Vminpu=0.8 Vmaxpu=1.2 model=1 kW=7.7038456108870115 kvar=2.2380550800559678 Phases=1 yearly=com_kw_13824_pu

New Load.load_p1ulv33_2 conn=wye bus1=p1ulv33.2 kV=0.12 Vminpu=0.8 Vmaxpu=1.2 model=1 kW=7.7038456108870115 kvar=2.2380550800559678 Phases=1 yearly=com_kw_13824_pu

New Load.load_p1ulv34 conn=wye bus1=p1ulv34.1.2.3 kV=0.48 Vminpu=0.8 Vmaxpu=1.2 model=1 kW=25.690284107981103 kvar=6.587691275952928 Phases=3 yearly=com_kw_14207_pu

New Load.load_p1ulv35 conn=wye bus1=p1ulv35.1.2.3 kV=0.48 Vminpu=0.8 Vmaxpu=1.2 model=1 kW=20.3910576075888 kvar=5.163696871380699 Phases=3 yearly=com_kw_15153_pu

New Load.load_p1ulv36 conn=wye bus1=p1ulv36.1.2.3 kV=0.48 Vminpu=0.8 Vmaxpu=1.2 model=1 kW=51.59615730035942 kvar=3.3845415948781685 Phases=3 yearly=com_kw_12854_pu

New Load.load_p1ulv40 conn=wye bus1=p1ulv40.1.2.3 kV=0.48 Vminpu=0.8 Vmaxpu=1.2 model=1 kW=20.3910576075888 kvar=5.163696871380699 Phases=3 yearly=com_kw_15153_pu

New Load.load_p1ulv41_1 conn=wye bus1=p1ulv41.1 kV=0.12 Vminpu=0.8 Vmaxpu=1.2 model=1 kW=1.3741353032147752 kvar=0.58237922359024 Phases=1 yearly=res_kw_1041_pu

New Load.load_p1ulv41_2 conn=wye bus1=p1ulv41.2 kV=0.12 Vminpu=0.8 Vmaxpu=1.2 model=1 kW=1.3741353032147752 kvar=0.58237922359024 Phases=1 yearly=res_kw_1041_pu

New Load.load_p1ulv42_1 conn=wye bus1=p1ulv42.1 kV=0.12 Vminpu=0.8 Vmaxpu=1.2 model=1 kW=9.58408050128494 kvar=0.501189422178741 Phases=1 yearly=com_kw_13655_pu

New Load.load_p1ulv42_2 conn=wye bus1=p1ulv42.2 kV=0.12 Vminpu=0.8 Vmaxpu=1.2 model=1 kW=9.58408050128494 kvar=0.501189422178741 Phases=1 yearly=com_kw_13655_pu

New Load.load_p1ulv43_1 conn=wye bus1=p1ulv43.1 kV=0.12 Vminpu=0.8 Vmaxpu=1.2 model=1 kW=5.574466357705123 kvar=1.0791692562247137 Phases=1 yearly=res_kw_1083_pu

New Load.load_p1ulv43_2 conn=wye bus1=p1ulv43.2 kV=0.12 Vminpu=0.8 Vmaxpu=1.2 model=1 kW=5.574466357705123 kvar=1.0791692562247137 Phases=1 yearly=res_kw_1083_pu

New Load.load_p1ulv44_1 conn=wye bus1=p1ulv44.1 kV=0.12 Vminpu=0.8 Vmaxpu=1.2 model=1 kW=6.449128851153275 kvar=1.807283564719534 Phases=1 yearly=com_kw_14048_pu

New Load.load_p1ulv44_2 conn=wye bus1=p1ulv44.2 kV=0.12 Vminpu=0.8 Vmaxpu=1.2 model=1 kW=6.449128851153275 kvar=1.807283564719534 Phases=1 yearly=com_kw_14048_pu

New Load.load_p1umv1 conn=wye bus1=p1umv1.1.2.3 kV=12.47 Vminpu=0.8 Vmaxpu=1.2 model=1 kW=2567.1643842471567 kvar=700.1372522288214 Phases=3 yearly=com_kw_15017_pu

New Load.load_p1ulv100_1 conn=wye bus1=p1ulv100.1 kV=0.12 Vminpu=0.8 Vmaxpu=1.2 model=1 kW=7.04256695844029 kvar=1.659740351203588 Phases=1 yearly=res_kw_707_pu

New Load.load_p1ulv100_2 conn=wye bus1=p1ulv100.2 kV=0.12 Vminpu=0.8 Vmaxpu=1.2 model=1 kW=7.04256695844029 kvar=1.659740351203588 Phases=1 yearly=res_kw_707_pu

New Load.load_p1ulv101_1 conn=wye bus1=p1ulv101.1 kV=0.12 Vminpu=0.8 Vmaxpu=1.2 model=1 kW=6.727252203449795 kvar=1.9067277455995406 Phases=1 yearly=res_kw_822_pu

New Load.load_p1ulv101_2 conn=wye bus1=p1ulv101.2 kV=0.12 Vminpu=0.8 Vmaxpu=1.2 model=1 kW=6.727252203449795 kvar=1.9067277455995406 Phases=1 yearly=res_kw_822_pu

New Load.load_p1ulv105_1 conn=wye bus1=p1ulv105.1 kV=0.12 Vminpu=0.8 Vmaxpu=1.2 model=1 kW=1.8618983584330409 kvar=0.7337589993741062 Phases=1 yearly=res_kw_141_pu

New Load.load_p1ulv105_2 conn=wye bus1=p1ulv105.2 kV=0.12 Vminpu=0.8 Vmaxpu=1.2 model=1 kW=1.8618983584330409 kvar=0.7337589993741062 Phases=1 yearly=res_kw_141_pu

New Load.load_p1ulv108_1 conn=wye bus1=p1ulv108.1 kV=0.12 Vminpu=0.8 Vmaxpu=1.2 model=1 kW=3.308494316062581 kvar=0.7969773391329138 Phases=1 yearly=res_kw_626_pu

New Load.load_p1ulv108_2 conn=wye bus1=p1ulv108.2 kV=0.12 Vminpu=0.8 Vmaxpu=1.2 model=1 kW=3.308494316062581 kvar=0.7969773391329138 Phases=1 yearly=res_kw_626_pu

New Load.load_p1ulv109_1 conn=wye bus1=p1ulv109.1 kV=0.12 Vminpu=0.8 Vmaxpu=1.2 model=1 kW=6.139488924452324 kvar=1.0282575631325632 Phases=1 yearly=res_kw_421_pu

New Load.load_p1ulv109_2 conn=wye bus1=p1ulv109.2 kV=0.12 Vminpu=0.8 Vmaxpu=1.2 model=1 kW=6.139488924452324 kvar=1.0282575631325632 Phases=1 yearly=res_kw_421_pu

New Load.load_p1ulv110_1 conn=wye bus1=p1ulv110.1 kV=0.12 Vminpu=0.8 Vmaxpu=1.2 model=1 kW=4.78815623948431 kvar=1.2110296754961107 Phases=1 yearly=res_kw_842_pu

New Load.load_p1ulv110_2 conn=wye bus1=p1ulv110.2 kV=0.12 Vminpu=0.8 Vmaxpu=1.2 model=1 kW=4.78815623948431 kvar=1.2110296754961107 Phases=1 yearly=res_kw_842_pu

New Load.load_p1ulv111_1 conn=wye bus1=p1ulv111.1 kV=0.12 Vminpu=0.8 Vmaxpu=1.2 model=1 kW=8.447919937810639 kvar=4.074999759912348 Phases=1 yearly=res_kw_461_pu

New Load.load_p1ulv111_2 conn=wye bus1=p1ulv111.2 kV=0.12 Vminpu=0.8 Vmaxpu=1.2 model=1 kW=8.447919937810639 kvar=4.074999759912348 Phases=1 yearly=res_kw_461_pu

New Load.load_p1ulv112_1 conn=wye bus1=p1ulv112.1 kV=0.12 Vminpu=0.8 Vmaxpu=1.2 model=1 kW=10.509958026123327 kvar=1.3292006708835382 Phases=1 yearly=res_kw_119_pu

New Load.load_p1ulv112_2 conn=wye bus1=p1ulv112.2 kV=0.12 Vminpu=0.8 Vmaxpu=1.2 model=1 kW=10.509958026123327 kvar=1.3292006708835382 Phases=1 yearly=res_kw_119_pu

New Load.load_p1ulv113_1 conn=wye bus1=p1ulv113.1 kV=0.12 Vminpu=0.8 Vmaxpu=1.2 model=1 kW=4.516489097443892 kvar=0.9687672615572862 Phases=1 yearly=res_kw_240_pu

New Load.load_p1ulv113_2 conn=wye bus1=p1ulv113.2 kV=0.12 Vminpu=0.8 Vmaxpu=1.2 model=1 kW=4.516489097443892 kvar=0.9687672615572862 Phases=1 yearly=res_kw_240_pu

New Load.load_p1ulv114_1 conn=wye bus1=p1ulv114.1 kV=0.12 Vminpu=0.8 Vmaxpu=1.2 model=1 kW=6.484825325204597 kvar=1.6440419394084307 Phases=1 yearly=res_kw_1115_pu

New Load.load_p1ulv114_2 conn=wye bus1=p1ulv114.2 kV=0.12 Vminpu=0.8 Vmaxpu=1.2 model=1 kW=6.484825325204597 kvar=1.6440419394084307 Phases=1 yearly=res_kw_1115_pu

New Load.load_p1ulv115_1 conn=wye bus1=p1ulv115.1 kV=0.12 Vminpu=0.8 Vmaxpu=1.2 model=1 kW=2.6241521841182514 kvar=0.8429304779950015 Phases=1 yearly=res_kw_33_pu

New Load.load_p1ulv115_2 conn=wye bus1=p1ulv115.2 kV=0.12 Vminpu=0.8 Vmaxpu=1.2 model=1 kW=2.6241521841182514 kvar=0.8429304779950015 Phases=1 yearly=res_kw_33_pu

New Load.load_p1ulv116_1 conn=wye bus1=p1ulv116.1 kV=0.12 Vminpu=0.8 Vmaxpu=1.2 model=1 kW=1.6746299650392789 kvar=0.594727774010976 Phases=1 yearly=res_kw_1276_pu

New Load.load_p1ulv116_2 conn=wye bus1=p1ulv116.2 kV=0.12 Vminpu=0.8 Vmaxpu=1.2 model=1 kW=1.6746299650392789 kvar=0.594727774010976 Phases=1 yearly=res_kw_1276_pu

New Load.load_p1ulv117_1 conn=wye bus1=p1ulv117.1 kV=0.12 Vminpu=0.8 Vmaxpu=1.2 model=1 kW=5.9950384424467575 kvar=1.0154392293013743 Phases=1 yearly=res_kw_514_pu

New Load.load_p1ulv117_2 conn=wye bus1=p1ulv117.2 kV=0.12 Vminpu=0.8 Vmaxpu=1.2 model=1 kW=5.9950384424467575 kvar=1.0154392293013743 Phases=1 yearly=res_kw_514_pu

New Load.load_p1ulv118_1 conn=wye bus1=p1ulv118.1 kV=0.12 Vminpu=0.8 Vmaxpu=1.2 model=1 kW=13.251431311430247 kvar=0.1493407165487586 Phases=1 yearly=com_kw_14976_pu

New Load.load_p1ulv118_2 conn=wye bus1=p1ulv118.2 kV=0.12 Vminpu=0.8 Vmaxpu=1.2 model=1 kW=13.251431311430247 kvar=0.1493407165487586 Phases=1 yearly=com_kw_14976_pu

New Load.load_p1ulv119_1 conn=wye bus1=p1ulv119.1 kV=0.12 Vminpu=0.8 Vmaxpu=1.2 model=1 kW=6.121843752393233 kvar=1.8222876779408097 Phases=1 yearly=res_kw_1153_pu

New Load.load_p1ulv119_2 conn=wye bus1=p1ulv119.2 kV=0.12 Vminpu=0.8 Vmaxpu=1.2 model=1 kW=6.121843752393233 kvar=1.8222876779408097 Phases=1 yearly=res_kw_1153_pu

New Load.load_p1ulv120_1 conn=wye bus1=p1ulv120.1 kV=0.12 Vminpu=0.8 Vmaxpu=1.2 model=1 kW=6.139488924452324 kvar=1.0282575631325632 Phases=1 yearly=res_kw_421_pu

New Load.load_p1ulv120_2 conn=wye bus1=p1ulv120.2 kV=0.12 Vminpu=0.8 Vmaxpu=1.2 model=1 kW=6.139488924452324 kvar=1.0282575631325632 Phases=1 yearly=res_kw_421_pu

New Load.load_p1ulv121_1 conn=wye bus1=p1ulv121.1 kV=0.12 Vminpu=0.8 Vmaxpu=1.2 model=1 kW=8.251042424246396 kvar=0.32276135260823513 Phases=1 yearly=res_kw_526_pu

New Load.load_p1ulv121_2 conn=wye bus1=p1ulv121.2 kV=0.12 Vminpu=0.8 Vmaxpu=1.2 model=1 kW=8.251042424246396 kvar=0.32276135260823513 Phases=1 yearly=res_kw_526_pu

New Load.load_p1ulv122_1 conn=wye bus1=p1ulv122.1 kV=0.12 Vminpu=0.8 Vmaxpu=1.2 model=1 kW=4.666080754031652 kvar=0.9704814918535188 Phases=1 yearly=res_kw_280_pu

New Load.load_p1ulv122_2 conn=wye bus1=p1ulv122.2 kV=0.12 Vminpu=0.8 Vmaxpu=1.2 model=1 kW=4.666080754031652 kvar=0.9704814918535188 Phases=1 yearly=res_kw_280_pu

New Load.load_p1ulv123_1 conn=wye bus1=p1ulv123.1 kV=0.12 Vminpu=0.8 Vmaxpu=1.2 model=1 kW=5.537802781538466 kvar=1.2166043281614465 Phases=1 yearly=res_kw_208_pu

New Load.load_p1ulv123_2 conn=wye bus1=p1ulv123.2 kV=0.12 Vminpu=0.8 Vmaxpu=1.2 model=1 kW=5.537802781538466 kvar=1.2166043281614465 Phases=1 yearly=res_kw_208_pu

New Load.load_p1ulv124_1 conn=wye bus1=p1ulv124.1 kV=0.12 Vminpu=0.8 Vmaxpu=1.2 model=1 kW=6.897997484512368 kvar=1.5073573946072503 Phases=1 yearly=res_kw_40_pu

New Load.load_p1ulv124_2 conn=wye bus1=p1ulv124.2 kV=0.12 Vminpu=0.8 Vmaxpu=1.2 model=1 kW=6.897997484512368 kvar=1.5073573946072503 Phases=1 yearly=res_kw_40_pu

New Load.load_p1ulv125_1 conn=wye bus1=p1ulv125.1 kV=0.12 Vminpu=0.8 Vmaxpu=1.2 model=1 kW=6.352673335739773 kvar=1.2718370911024361 Phases=1 yearly=res_kw_148_pu

New Load.load_p1ulv125_2 conn=wye bus1=p1ulv125.2 kV=0.12 Vminpu=0.8 Vmaxpu=1.2 model=1 kW=6.352673335739773 kvar=1.2718370911024361 Phases=1 yearly=res_kw_148_pu

New Load.load_p1ulv126_1 conn=wye bus1=p1ulv126.1 kV=0.12 Vminpu=0.8 Vmaxpu=1.2 model=1 kW=3.8748715750127736 kvar=1.5614372175332516 Phases=1 yearly=res_kw_517_pu

New Load.load_p1ulv126_2 conn=wye bus1=p1ulv126.2 kV=0.12 Vminpu=0.8 Vmaxpu=1.2 model=1 kW=3.8748715750127736 kvar=1.5614372175332516 Phases=1 yearly=res_kw_517_pu

New Load.load_p1ulv127_1 conn=wye bus1=p1ulv127.1 kV=0.12 Vminpu=0.8 Vmaxpu=1.2 model=1 kW=0.8155215330625105 kvar=0.30217793028689777 Phases=1 yearly=res_kw_1270_pu

New Load.load_p1ulv127_2 conn=wye bus1=p1ulv127.2 kV=0.12 Vminpu=0.8 Vmaxpu=1.2 model=1 kW=0.8155215330625105 kvar=0.30217793028689777 Phases=1 yearly=res_kw_1270_pu

New Load.load_p1ulv128 conn=wye bus1=p1ulv128.1.2.3 kV=0.48 Vminpu=0.8 Vmaxpu=1.2 model=1 kW=17.07953851992707 kvar=1.7058344671508416 Phases=3 yearly=res_kw_1173_pu

New Load.load_p1ulv129_1 conn=wye bus1=p1ulv129.1 kV=0.12 Vminpu=0.8 Vmaxpu=1.2 model=1 kW=3.3701610259235064 kvar=1.065454990641787 Phases=1 yearly=res_kw_1037_pu

New Load.load_p1ulv129_2 conn=wye bus1=p1ulv129.2 kV=0.12 Vminpu=0.8 Vmaxpu=1.2 model=1 kW=3.3701610259235064 kvar=1.065454990641787 Phases=1 yearly=res_kw_1037_pu

New Load.load_p1ulv130_1 conn=wye bus1=p1ulv130.1 kV=0.12 Vminpu=0.8 Vmaxpu=1.2 model=1 kW=2.40000228705824 kvar=1.0173787262529668 Phases=1 yearly=res_kw_1205_pu

New Load.load_p1ulv130_2 conn=wye bus1=p1ulv130.2 kV=0.12 Vminpu=0.8 Vmaxpu=1.2 model=1 kW=2.40000228705824 kvar=1.0173787262529668 Phases=1 yearly=res_kw_1205_pu

New Load.load_p1ulv131_1 conn=wye bus1=p1ulv131.1 kV=0.12 Vminpu=0.8 Vmaxpu=1.2 model=1 kW=2.5047232020051142 kvar=0.6800922265265169 Phases=1 yearly=res_kw_162_pu

New Load.load_p1ulv131_2 conn=wye bus1=p1ulv131.2 kV=0.12 Vminpu=0.8 Vmaxpu=1.2 model=1 kW=2.5047232020051142 kvar=0.6800922265265169 Phases=1 yearly=res_kw_162_pu

New Load.load_p1ulv132_1 conn=wye bus1=p1ulv132.1 kV=0.12 Vminpu=0.8 Vmaxpu=1.2 model=1 kW=7.29964547707174 kvar=1.0805961207975088 Phases=1 yearly=res_kw_1066_pu

New Load.load_p1ulv132_2 conn=wye bus1=p1ulv132.2 kV=0.12 Vminpu=0.8 Vmaxpu=1.2 model=1 kW=7.29964547707174 kvar=1.0805961207975088 Phases=1 yearly=res_kw_1066_pu

New Load.load_p1ulv133_1 conn=wye bus1=p1ulv133.1 kV=0.12 Vminpu=0.8 Vmaxpu=1.2 model=1 kW=3.6844020253442458 kvar=1.4451491397155931 Phases=1 yearly=res_kw_1258_pu

New Load.load_p1ulv133_2 conn=wye bus1=p1ulv133.2 kV=0.12 Vminpu=0.8 Vmaxpu=1.2 model=1 kW=3.6844020253442458 kvar=1.4451491397155931 Phases=1 yearly=res_kw_1258_pu

New Load.load_p1ulv134_1 conn=wye bus1=p1ulv134.1 kV=0.12 Vminpu=0.8 Vmaxpu=1.2 model=1 kW=7.7578735794910925 kvar=1.9049941012910125 Phases=1 yearly=res_kw_863_pu

New Load.load_p1ulv134_2 conn=wye bus1=p1ulv134.2 kV=0.12 Vminpu=0.8 Vmaxpu=1.2 model=1 kW=7.7578735794910925 kvar=1.9049941012910125 Phases=1 yearly=res_kw_863_pu

New Load.load_p1ulv135_1 conn=wye bus1=p1ulv135.1 kV=0.12 Vminpu=0.8 Vmaxpu=1.2 model=1 kW=3.8029744718879392 kvar=1.1462670306842289 Phases=1 yearly=res_kw_263_pu

New Load.load_p1ulv135_2 conn=wye bus1=p1ulv135.2 kV=0.12 Vminpu=0.8 Vmaxpu=1.2 model=1 kW=3.8029744718879392 kvar=1.1462670306842289 Phases=1 yearly=res_kw_263_pu

New Load.load_p1ulv136_1 conn=wye bus1=p1ulv136.1 kV=0.12 Vminpu=0.8 Vmaxpu=1.2 model=1 kW=3.469755020859998 kvar=0.8941520384931253 Phases=1 yearly=res_kw_4_pu

New Load.load_p1ulv136_2 conn=wye bus1=p1ulv136.2 kV=0.12 Vminpu=0.8 Vmaxpu=1.2 model=1 kW=3.469755020859998 kvar=0.8941520384931253 Phases=1 yearly=res_kw_4_pu

New Load.load_p1ulv137_1 conn=wye bus1=p1ulv137.1 kV=0.12 Vminpu=0.8 Vmaxpu=1.2 model=1 kW=1.8270668584328815 kvar=0.47834982765957706 Phases=1 yearly=res_kw_507_pu

New Load.load_p1ulv137_2 conn=wye bus1=p1ulv137.2 kV=0.12 Vminpu=0.8 Vmaxpu=1.2 model=1 kW=1.8270668584328815 kvar=0.47834982765957706 Phases=1 yearly=res_kw_507_pu

New Load.load_p1ulv138_1 conn=wye bus1=p1ulv138.1 kV=0.12 Vminpu=0.8 Vmaxpu=1.2 model=1 kW=4.788649591238137 kvar=1.023651375705972 Phases=1 yearly=res_kw_512_pu

New Load.load_p1ulv138_2 conn=wye bus1=p1ulv138.2 kV=0.12 Vminpu=0.8 Vmaxpu=1.2 model=1 kW=4.788649591238137 kvar=1.023651375705972 Phases=1 yearly=res_kw_512_pu

New Load.load_p1ulv139_1 conn=wye bus1=p1ulv139.1 kV=0.12 Vminpu=0.8 Vmaxpu=1.2 model=1 kW=2.40000228705824 kvar=1.0173787262529668 Phases=1 yearly=res_kw_1205_pu

New Load.load_p1ulv139_2 conn=wye bus1=p1ulv139.2 kV=0.12 Vminpu=0.8 Vmaxpu=1.2 model=1 kW=2.40000228705824 kvar=1.0173787262529668 Phases=1 yearly=res_kw_1205_pu

New Load.load_p1ulv140_1 conn=wye bus1=p1ulv140.1 kV=0.12 Vminpu=0.8 Vmaxpu=1.2 model=1 kW=9.530513685951655 kvar=1.0090390492561063 Phases=1 yearly=res_kw_914_pu

New Load.load_p1ulv140_2 conn=wye bus1=p1ulv140.2 kV=0.12 Vminpu=0.8 Vmaxpu=1.2 model=1 kW=9.530513685951655 kvar=1.0090390492561063 Phases=1 yearly=res_kw_914_pu

New Load.load_p1ulv141_1 conn=wye bus1=p1ulv141.1 kV=0.12 Vminpu=0.8 Vmaxpu=1.2 model=1 kW=4.210298015652027 kvar=1.0692366300393858 Phases=1 yearly=res_kw_894_pu

New Load.load_p1ulv141_2 conn=wye bus1=p1ulv141.2 kV=0.12 Vminpu=0.8 Vmaxpu=1.2 model=1 kW=4.210298015652027 kvar=1.0692366300393858 Phases=1 yearly=res_kw_894_pu

New Load.load_p1ulv142_1 conn=wye bus1=p1ulv142.1 kV=0.12 Vminpu=0.8 Vmaxpu=1.2 model=1 kW=10.375628907780863 kvar=4.616486224330442 Phases=1 yearly=res_kw_1267_pu

New Load.load_p1ulv142_2 conn=wye bus1=p1ulv142.2 kV=0.12 Vminpu=0.8 Vmaxpu=1.2 model=1 kW=10.375628907780863 kvar=4.616486224330442 Phases=1 yearly=res_kw_1267_pu

New Load.load_p1ulv143_1 conn=wye bus1=p1ulv143.1 kV=0.12 Vminpu=0.8 Vmaxpu=1.2 model=1 kW=8.447919937810639 kvar=4.074999759912348 Phases=1 yearly=res_kw_461_pu

New Load.load_p1ulv143_2 conn=wye bus1=p1ulv143.2 kV=0.12 Vminpu=0.8 Vmaxpu=1.2 model=1 kW=8.447919937810639 kvar=4.074999759912348 Phases=1 yearly=res_kw_461_pu

New Load.load_p1ulv144_1 conn=wye bus1=p1ulv144.1 kV=0.12 Vminpu=0.8 Vmaxpu=1.2 model=1 kW=2.605021030189827 kvar=1.0007509371876184 Phases=1 yearly=res_kw_24_pu

New Load.load_p1ulv144_2 conn=wye bus1=p1ulv144.2 kV=0.12 Vminpu=0.8 Vmaxpu=1.2 model=1 kW=2.605021030189827 kvar=1.0007509371876184 Phases=1 yearly=res_kw_24_pu

New Load.load_p1ulv145_1 conn=wye bus1=p1ulv145.1 kV=0.12 Vminpu=0.8 Vmaxpu=1.2 model=1 kW=2.901745080312197 kvar=1.2924395298142213 Phases=1 yearly=res_kw_225_pu

New Load.load_p1ulv145_2 conn=wye bus1=p1ulv145.2 kV=0.12 Vminpu=0.8 Vmaxpu=1.2 model=1 kW=2.901745080312197 kvar=1.2924395298142213 Phases=1 yearly=res_kw_225_pu

New Load.load_p1ulv1541_1 conn=wye bus1=p1ulv1541.1 kV=0.12 Vminpu=0.8 Vmaxpu=1.2 model=1 kW=2.5047232020051142 kvar=0.6800922265265169 Phases=1 yearly=res_kw_162_pu

New Load.load_p1ulv1541_2 conn=wye bus1=p1ulv1541.2 kV=0.12 Vminpu=0.8 Vmaxpu=1.2 model=1 kW=2.5047232020051142 kvar=0.6800922265265169 Phases=1 yearly=res_kw_162_pu

New Load.load_p1ulv1543_1 conn=wye bus1=p1ulv1543.1 kV=0.12 Vminpu=0.8 Vmaxpu=1.2 model=1 kW=2.40000228705824 kvar=1.0173787262529668 Phases=1 yearly=res_kw_1205_pu

New Load.load_p1ulv1543_2 conn=wye bus1=p1ulv1543.2 kV=0.12 Vminpu=0.8 Vmaxpu=1.2 model=1 kW=2.40000228705824 kvar=1.0173787262529668 Phases=1 yearly=res_kw_1205_pu

New Load.load_p1ulv1545 conn=wye bus1=p1ulv1545.1.2.3 kV=0.48 Vminpu=0.8 Vmaxpu=1.2 model=1 kW=34.95025902709327 kvar=12.584382652547053 Phases=3 yearly=com_kw_14942_pu

New Load.load_p1ulv1547_1 conn=wye bus1=p1ulv1547.1 kV=0.12 Vminpu=0.8 Vmaxpu=1.2 model=1 kW=7.259772519581312 kvar=1.3210086815250959 Phases=1 yearly=res_kw_128_pu

New Load.load_p1ulv1547_2 conn=wye bus1=p1ulv1547.2 kV=0.12 Vminpu=0.8 Vmaxpu=1.2 model=1 kW=7.259772519581312 kvar=1.3210086815250959 Phases=1 yearly=res_kw_128_pu

New Load.load_p1ulv1548_1 conn=wye bus1=p1ulv1548.1 kV=0.12 Vminpu=0.8 Vmaxpu=1.2 model=1 kW=3.3641909207712115 kvar=0.9284266244461494 Phases=1 yearly=res_kw_523_pu

New Load.load_p1ulv1548_2 conn=wye bus1=p1ulv1548.2 kV=0.12 Vminpu=0.8 Vmaxpu=1.2 model=1 kW=3.3641909207712115 kvar=0.9284266244461494 Phases=1 yearly=res_kw_523_pu

New Load.load_p1ulv1550_1 conn=wye bus1=p1ulv1550.1 kV=0.12 Vminpu=0.8 Vmaxpu=1.2 model=1 kW=3.4468581914223817 kvar=1.1411197390818253 Phases=1 yearly=res_kw_250_pu

New Load.load_p1ulv1550_2 conn=wye bus1=p1ulv1550.2 kV=0.12 Vminpu=0.8 Vmaxpu=1.2 model=1 kW=3.4468581914223817 kvar=1.1411197390818253 Phases=1 yearly=res_kw_250_pu

New Load.load_p1ulv1551 conn=wye bus1=p1ulv1551.1.2.3 kV=0.48 Vminpu=0.8 Vmaxpu=1.2 model=1 kW=76.12521636140032 kvar=29.30093864007087 Phases=3 yearly=com_kw_12866_pu

New Load.load_p1ulv1552_1 conn=wye bus1=p1ulv1552.1 kV=0.12 Vminpu=0.8 Vmaxpu=1.2 model=1 kW=2.40000228705824 kvar=1.0173787262529668 Phases=1 yearly=res_kw_1205_pu

New Load.load_p1ulv1552_2 conn=wye bus1=p1ulv1552.2 kV=0.12 Vminpu=0.8 Vmaxpu=1.2 model=1 kW=2.40000228705824 kvar=1.0173787262529668 Phases=1 yearly=res_kw_1205_pu

New Load.load_p1ulv1560_1 conn=wye bus1=p1ulv1560.1 kV=0.12 Vminpu=0.8 Vmaxpu=1.2 model=1 kW=7.259772519581312 kvar=1.3210086815250959 Phases=1 yearly=res_kw_128_pu

New Load.load_p1ulv1560_2 conn=wye bus1=p1ulv1560.2 kV=0.12 Vminpu=0.8 Vmaxpu=1.2 model=1 kW=7.259772519581312 kvar=1.3210086815250959 Phases=1 yearly=res_kw_128_pu

New Load.load_p1ulv1561_1 conn=wye bus1=p1ulv1561.1 kV=0.12 Vminpu=0.8 Vmaxpu=1.2 model=1 kW=3.3641909207712115 kvar=0.9284266244461494 Phases=1 yearly=res_kw_523_pu

New Load.load_p1ulv1561_2 conn=wye bus1=p1ulv1561.2 kV=0.12 Vminpu=0.8 Vmaxpu=1.2 model=1 kW=3.3641909207712115 kvar=0.9284266244461494 Phases=1 yearly=res_kw_523_pu

New Load.load_p1ulv1562_1 conn=wye bus1=p1ulv1562.1 kV=0.12 Vminpu=0.8 Vmaxpu=1.2 model=1 kW=7.820072877358693 kvar=1.759853089528969 Phases=1 yearly=res_kw_97_pu

New Load.load_p1ulv1562_2 conn=wye bus1=p1ulv1562.2 kV=0.12 Vminpu=0.8 Vmaxpu=1.2 model=1 kW=7.820072877358693 kvar=1.759853089528969 Phases=1 yearly=res_kw_97_pu

New Load.load_p1ulv1568_1 conn=wye bus1=p1ulv1568.1 kV=0.12 Vminpu=0.8 Vmaxpu=1.2 model=1 kW=2.8808589162778904 kvar=0.2835073949750637 Phases=1 yearly=res_kw_1036_pu

New Load.load_p1ulv1568_2 conn=wye bus1=p1ulv1568.2 kV=0.12 Vminpu=0.8 Vmaxpu=1.2 model=1 kW=2.8808589162778904 kvar=0.2835073949750637 Phases=1 yearly=res_kw_1036_pu

New Load.load_p1ulv1569_1 conn=wye bus1=p1ulv1569.1 kV=0.12 Vminpu=0.8 Vmaxpu=1.2 model=1 kW=8.028761563825192 kvar=2.8988403958800677 Phases=1 yearly=res_kw_798_pu

New Load.load_p1ulv1569_2 conn=wye bus1=p1ulv1569.2 kV=0.12 Vminpu=0.8 Vmaxpu=1.2 model=1 kW=8.028761563825192 kvar=2.8988403958800677 Phases=1 yearly=res_kw_798_pu

New Load.load_p1ulv1894_1 conn=wye bus1=p1ulv1894.1 kV=0.12 Vminpu=0.8 Vmaxpu=1.2 model=1 kW=7.7578735794910925 kvar=1.9049941012910125 Phases=1 yearly=res_kw_863_pu
