New Load.load_p1ulv3506_1 conn=wye bus1=p1ulv3506.1 kV=0.12 Vminpu=0.8 Vmaxpu=1.2 model=1 kW=4.813166301845345 kvar=0.42694406445358757 Phases=1 yearly=res_kw_371_pu

New Load.load_p1ulv3506_2 conn=wye bus1=p1ulv3506.2 kV=0.12 Vminpu=0.8 Vmaxpu=1.2 model=1 kW=4.813166301845345 kvar=0.42694406445358757 Phases=1 yearly=res_kw_371_pu

New Load.load_p1ulv3507 conn=wye bus1=p1ulv3507.1.2.3 kV=0.48 Vminpu=0.8 Vmaxpu=1.2 model=1 kW=60.66802016566287 kvar=10.226166406282765 Phases=3 yearly=res_kw_1032_pu

New Load.load_p1ulv3508_1 conn=wye bus1=p1ulv3508.1 kV=0.12 Vminpu=0.8 Vmaxpu=1.2 model=1 kW=5.234678621012209 kvar=0.9754045266364657 Phases=1 yearly=res_kw_929_pu

New Load.load_p1ulv3508_2 conn=wye bus1=p1ulv3508.2 kV=0.12 Vminpu=0.8 Vmaxpu=1.2 model=1 kW=5.234678621012209 kvar=0.9754045266364657 Phases=1 yearly=res_kw_929_pu

New Load.load_p1ulv3509 conn=wye bus1=p1ulv3509.1.2.3 kV=0.48 Vminpu=0.8 Vmaxpu=1.2 model=1 kW=31.56390894948716 kvar=5.59016195527881 Phases=3 yearly=res_kw_76_pu

New Load.load_p1ulv3510_1 conn=wye bus1=p1ulv3510.1 kV=0.12 Vminpu=0.8 Vmaxpu=1.2 model=1 kW=5.593814709601456 kvar=0.9267363329025571 Phases=1 yearly=res_kw_561_pu

New Load.load_p1ulv3510_2 conn=wye bus1=p1ulv3510.2 kV=0.12 Vminpu=0.8 Vmaxpu=1.2 model=1 kW=5.593814709601456 kvar=0.9267363329025571 Phases=1 yearly=res_kw_561_pu

New Load.load_p1ulv3511 conn=wye bus1=p1ulv3511.1.2.3 kV=0.48 Vminpu=0.8 Vmaxpu=1.2 model=1 kW=41.27726434904335 kvar=10.826959957077602 Phases=3 yearly=com_kw_13682_pu

New Load.load_p1ulv3513 conn=wye bus1=p1ulv3513.1.2.3 kV=0.48 Vminpu=0.8 Vmaxpu=1.2 model=1 kW=22.37300704356237 kvar=1.5751126418301655 Phases=3 yearly=res_kw_697_pu

New Load.load_p1ulv3514 conn=wye bus1=p1ulv3514.1.2.3 kV=0.48 Vminpu=0.8 Vmaxpu=1.2 model=1 kW=22.37300704356237 kvar=1.5751126418301655 Phases=3 yearly=res_kw_697_pu

New Load.load_p1ulv3515_1 conn=wye bus1=p1ulv3515.1 kV=0.12 Vminpu=0.8 Vmaxpu=1.2 model=1 kW=10.375628907780863 kvar=4.616486224330442 Phases=1 yearly=res_kw_1267_pu

New Load.load_p1ulv3515_2 conn=wye bus1=p1ulv3515.2 kV=0.12 Vminpu=0.8 Vmaxpu=1.2 model=1 kW=10.375628907780863 kvar=4.616486224330442 Phases=1 yearly=res_kw_1267_pu

New Load.load_p1ulv3516_1 conn=wye bus1=p1ulv3516.1 kV=0.12 Vminpu=0.8 Vmaxpu=1.2 model=1 kW=2.901745080312197 kvar=1.2924395298142213 Phases=1 yearly=res_kw_225_pu

New Load.load_p1ulv3516_2 conn=wye bus1=p1ulv3516.2 kV=0.12 Vminpu=0.8 Vmaxpu=1.2 model=1 kW=2.901745080312197 kvar=1.2924395298142213 Phases=1 yearly=res_kw_225_pu

New Load.load_p1ulv3517 conn=wye bus1=p1ulv3517.1.2.3 kV=0.48 Vminpu=0.8 Vmaxpu=1.2 model=1 kW=17.66011877759799 kvar=0.6621589123138862 Phases=3 yearly=res_kw_630_pu

New Load.load_p1ulv3518_1 conn=wye bus1=p1ulv3518.1 kV=0.12 Vminpu=0.8 Vmaxpu=1.2 model=1 kW=5.1496269559453545 kvar=1.5323145223091108 Phases=1 yearly=com_kw_14231_pu

New Load.load_p1ulv3518_2 conn=wye bus1=p1ulv3518.2 kV=0.12 Vminpu=0.8 Vmaxpu=1.2 model=1 kW=5.1496269559453545 kvar=1.5323145223091108 Phases=1 yearly=com_kw_14231_pu

New Load.load_p1ulv3519 conn=wye bus1=p1ulv3519.1.2.3 kV=0.48 Vminpu=0.8 Vmaxpu=1.2 model=1 kW=28.18559562889561 kvar=2.694918788874464 Phases=3 yearly=res_kw_325_pu

New Load.load_p1ulv3520 conn=wye bus1=p1ulv3520.1.2.3 kV=0.48 Vminpu=0.8 Vmaxpu=1.2 model=1 kW=31.56390894948716 kvar=5.59016195527881 Phases=3 yearly=res_kw_76_pu

New Load.load_p1ulv6250_1 conn=wye bus1=p1ulv6250.1 kV=0.12 Vminpu=0.8 Vmaxpu=1.2 model=1 kW=4.16464238338737 kvar=0.9759614008792458 Phases=1 yearly=res_kw_968_pu

New Load.load_p1ulv6250_2 conn=wye bus1=p1ulv6250.2 kV=0.12 Vminpu=0.8 Vmaxpu=1.2 model=1 kW=4.16464238338737 kvar=0.9759614008792458 Phases=1 yearly=res_kw_968_pu

New Load.load_p1ulv6251_1 conn=wye bus1=p1ulv6251.1 kV=0.12 Vminpu=0.8 Vmaxpu=1.2 model=1 kW=2.6241521841182514 kvar=0.8429304779950015 Phases=1 yearly=res_kw_33_pu

New Load.load_p1ulv6251_2 conn=wye bus1=p1ulv6251.2 kV=0.12 Vminpu=0.8 Vmaxpu=1.2 model=1 kW=2.6241521841182514 kvar=0.8429304779950015 Phases=1 yearly=res_kw_33_pu

New Load.load_p1ulv6252_1 conn=wye bus1=p1ulv6252.1 kV=0.12 Vminpu=0.8 Vmaxpu=1.2 model=1 kW=2.6241521841182514 kvar=0.8429304779950015 Phases=1 yearly=res_kw_33_pu

New Load.load_p1ulv6252_2 conn=wye bus1=p1ulv6252.2 kV=0.12 Vminpu=0.8 Vmaxpu=1.2 model=1 kW=2.6241521841182514 kvar=0.8429304779950015 Phases=1 yearly=res_kw_33_pu

New Load.load_p1ulv6253_1 conn=wye bus1=p1ulv6253.1 kV=0.12 Vminpu=0.8 Vmaxpu=1.2 model=1 kW=2.6241521841182514 kvar=0.8429304779950015 Phases=1 yearly=res_kw_33_pu

New Load.load_p1ulv6253_2 conn=wye bus1=p1ulv6253.2 kV=0.12 Vminpu=0.8 Vmaxpu=1.2 model=1 kW=2.6241521841182514 kvar=0.8429304779950015 Phases=1 yearly=res_kw_33_pu

New Load.load_p1ulv6254_1 conn=wye bus1=p1ulv6254.1 kV=0.12 Vminpu=0.8 Vmaxpu=1.2 model=1 kW=2.605021030189827 kvar=1.0007509371876184 Phases=1 yearly=res_kw_24_pu

New Load.load_p1ulv6254_2 conn=wye bus1=p1ulv6254.2 kV=0.12 Vminpu=0.8 Vmaxpu=1.2 model=1 kW=2.605021030189827 kvar=1.0007509371876184 Phases=1 yearly=res_kw_24_pu

New Load.load_p1ulv6255_1 conn=wye bus1=p1ulv6255.1 kV=0.12 Vminpu=0.8 Vmaxpu=1.2 model=1 kW=2.605021030189827 kvar=1.0007509371876184 Phases=1 yearly=res_kw_24_pu

New Load.load_p1ulv6255_2 conn=wye bus1=p1ulv6255.2 kV=0.12 Vminpu=0.8 Vmaxpu=1.2 model=1 kW=2.605021030189827 kvar=1.0007509371876184 Phases=1 yearly=res_kw_24_pu

New Load.load_p1ulv6256_1 conn=wye bus1=p1ulv6256.1 kV=0.12 Vminpu=0.8 Vmaxpu=1.2 model=1 kW=5.675346369339635 kvar=1.238985226090579 Phases=1 yearly=res_kw_1186_pu

New Load.load_p1ulv6256_2 conn=wye bus1=p1ulv6256.2 kV=0.12 Vminpu=0.8 Vmaxpu=1.2 model=1 kW=5.675346369339635 kvar=1.238985226090579 Phases=1 yearly=res_kw_1186_pu

New Load.load_p1ulv6257_1 conn=wye bus1=p1ulv6257.1 kV=0.12 Vminpu=0.8 Vmaxpu=1.2 model=1 kW=7.195337616187572 kvar=1.3536865792954904 Phases=1 yearly=res_kw_462_pu

New Load.load_p1ulv6257_2 conn=wye bus1=p1ulv6257.2 kV=0.12 Vminpu=0.8 Vmaxpu=1.2 model=1 kW=7.195337616187572 kvar=1.3536865792954904 Phases=1 yearly=res_kw_462_pu

New Load.load_p1ulv6258_1 conn=wye bus1=p1ulv6258.1 kV=0.12 Vminpu=0.8 Vmaxpu=1.2 model=1 kW=5.675346369339635 kvar=1.238985226090579 Phases=1 yearly=res_kw_1186_pu

New Load.load_p1ulv6258_2 conn=wye bus1=p1ulv6258.2 kV=0.12 Vminpu=0.8 Vmaxpu=1.2 model=1 kW=5.675346369339635 kvar=1.238985226090579 Phases=1 yearly=res_kw_1186_pu

New Load.load_p1ulv6259_1 conn=wye bus1=p1ulv6259.1 kV=0.12 Vminpu=0.8 Vmaxpu=1.2 model=1 kW=2.605021030189827 kvar=1.0007509371876184 Phases=1 yearly=res_kw_24_pu

New Load.load_p1ulv6259_2 conn=wye bus1=p1ulv6259.2 kV=0.12 Vminpu=0.8 Vmaxpu=1.2 model=1 kW=2.605021030189827 kvar=1.0007509371876184 Phases=1 yearly=res_kw_24_pu

New Load.load_p1ulv6260_1 conn=wye bus1=p1ulv6260.1 kV=0.12 Vminpu=0.8 Vmaxpu=1.2 model=1 kW=2.6241521841182514 kvar=0.8429304779950015 Phases=1 yearly=res_kw_33_pu

New Load.load_p1ulv6260_2 conn=wye bus1=p1ulv6260.2 kV=0.12 Vminpu=0.8 Vmaxpu=1.2 model=1 kW=2.6241521841182514 kvar=0.8429304779950015 Phases=1 yearly=res_kw_33_pu

New Load.load_p1ulv6261_1 conn=wye bus1=p1ulv6261.1 kV=0.12 Vminpu=0.8 Vmaxpu=1.2 model=1 kW=2.6241521841182514 kvar=0.8429304779950015 Phases=1 yearly=res_kw_33_pu

New Load.load_p1ulv6261_2 conn=wye bus1=p1ulv6261.2 kV=0.12 Vminpu=0.8 Vmaxpu=1.2 model=1 kW=2.6241521841182514 kvar=0.8429304779950015 Phases=1 yearly=res_kw_33_pu

New Load.load_p1ulv6262_1 conn=wye bus1=p1ulv6262.1 kV=0.12 Vminpu=0.8 Vmaxpu=1.2 model=1 kW=2.605021030189827 kvar=1.0007509371876184 Phases=1 yearly=res_kw_24_pu

New Load.load_p1ulv6262_2 conn=wye bus1=p1ulv6262.2 kV=0.12 Vminpu=0.8 Vmaxpu=1.2 model=1 kW=2.605021030189827 kvar=1.0007509371876184 Phases=1 yearly=res_kw_24_pu

New Load.load_p1ulv6263_1 conn=wye bus1=p1ulv6263.1 kV=0.12 Vminpu=0.8 Vmaxpu=1.2 model=1 kW=2.5047232020051142 kvar=0.6800922265265169 Phases=1 yearly=res_kw_162_pu

New Load.load_p1ulv6263_2 conn=wye bus1=p1ulv6263.2 kV=0.12 Vminpu=0.8 Vmaxpu=1.2 model=1 kW=2.5047232020051142 kvar=0.6800922265265169 Phases=1 yearly=res_kw_162_pu

New Load.load_p1ulv6264_1 conn=wye bus1=p1ulv6264.1 kV=0.12 Vminpu=0.8 Vmaxpu=1.2 model=1 kW=2.605021030189827 kvar=1.0007509371876184 Phases=1 yearly=res_kw_24_pu

New Load.load_p1ulv6264_2 conn=wye bus1=p1ulv6264.2 kV=0.12 Vminpu=0.8 Vmaxpu=1.2 model=1 kW=2.605021030189827 kvar=1.0007509371876184 Phases=1 yearly=res_kw_24_pu

New Load.load_p1ulv6265_1 conn=wye bus1=p1ulv6265.1 kV=0.12 Vminpu=0.8 Vmaxpu=1.2 model=1 kW=2.1376631749204993 kvar=0.6218033466021168 Phases=1 yearly=res_kw_93_pu

New Load.load_p1ulv6265_2 conn=wye bus1=p1ulv6265.2 kV=0.12 Vminpu=0.8 Vmaxpu=1.2 model=1 kW=2.1376631749204993 kvar=0.6218033466021168 Phases=1 yearly=res_kw_93_pu

New Load.load_p1ulv6266_1 conn=wye bus1=p1ulv6266.1 kV=0.12 Vminpu=0.8 Vmaxpu=1.2 model=1 kW=2.1376631749204993 kvar=0.6218033466021168 Phases=1 yearly=res_kw_93_pu

New Load.load_p1ulv6266_2 conn=wye bus1=p1ulv6266.2 kV=0.12 Vminpu=0.8 Vmaxpu=1.2 model=1 kW=2.1376631749204993 kvar=0.6218033466021168 Phases=1 yearly=res_kw_93_pu

New Load.load_p1ulv6267_1 conn=wye bus1=p1ulv6267.1 kV=0.12 Vminpu=0.8 Vmaxpu=1.2 model=1 kW=2.605021030189827 kvar=1.0007509371876184 Phases=1 yearly=res_kw_24_pu

New Load.load_p1ulv6267_2 conn=wye bus1=p1ulv6267.2 kV=0.12 Vminpu=0.8 Vmaxpu=1.2 model=1 kW=2.605021030189827 kvar=1.0007509371876184 Phases=1 yearly=res_kw_24_pu

New Load.load_p1ulv6268_1 conn=wye bus1=p1ulv6268.1 kV=0.12 Vminpu=0.8 Vmaxpu=1.2 model=1 kW=2.605021030189827 kvar=1.0007509371876184 Phases=1 yearly=res_kw_24_pu

New Load.load_p1ulv6268_2 conn=wye bus1=p1ulv6268.2 kV=0.12 Vminpu=0.8 Vmaxpu=1.2 model=1 kW=2.605021030189827 kvar=1.0007509371876184 Phases=1 yearly=res_kw_24_pu

New Load.load_p1ulv6269_1 conn=wye bus1=p1ulv6269.1 kV=0.12 Vminpu=0.8 Vmaxpu=1.2 model=1 kW=4.7264639008757365 kvar=1.36553634213978 Phases=1 yearly=res_kw_1220_pu

New Load.load_p1ulv6269_2 conn=wye bus1=p1ulv6269.2 kV=0.12 Vminpu=0.8 Vmaxpu=1.2 model=1 kW=4.7264639008757365 kvar=1.36553634213978 Phases=1 yearly=res_kw_1220_pu

New Load.load_p1ulv6270_1 conn=wye bus1=p1ulv6270.1 kV=0.12 Vminpu=0.8 Vmaxpu=1.2 model=1 kW=3.789884331965197 kvar=1.0036576715582408 Phases=1 yearly=res_kw_670_pu

New Load.load_p1ulv6270_2 conn=wye bus1=p1ulv6270.2 kV=0.12 Vminpu=0.8 Vmaxpu=1.2 model=1 kW=3.789884331965197 kvar=1.0036576715582408 Phases=1 yearly=res_kw_670_pu

New Load.load_p1ulv6271_1 conn=wye bus1=p1ulv6271.1 kV=0.12 Vminpu=0.8 Vmaxpu=1.2 model=1 kW=2.6241521841182514 kvar=0.8429304779950015 Phases=1 yearly=res_kw_33_pu

New Load.load_p1ulv6271_2 conn=wye bus1=p1ulv6271.2 kV=0.12 Vminpu=0.8 Vmaxpu=1.2 model=1 kW=2.6241521841182514 kvar=0.8429304779950015 Phases=1 yearly=res_kw_33_pu

New Load.load_p1ulv6272_1 conn=wye bus1=p1ulv6272.1 kV=0.12 Vminpu=0.8 Vmaxpu=1.2 model=1 kW=2.6241521841182514 kvar=0.8429304779950015 Phases=1 yearly=res_kw_33_pu

New Load.load_p1ulv6272_2 conn=wye bus1=p1ulv6272.2 kV=0.12 Vminpu=0.8 Vmaxpu=1.2 model=1 kW=2.6241521841182514 kvar=0.8429304779950015 Phases=1 yearly=res_kw_33_pu

New Load.load_p1ulv6273_1 conn=wye bus1=p1ulv6273.1 kV=0.12 Vminpu=0.8 Vmaxpu=1.2 model=1 kW=2.6241521841182514 kvar=0.8429304779950015 Phases=1 yearly=res_kw_33_pu

New Load.load_p1ulv6273_2 conn=wye bus1=p1ulv6273.2 kV=0.12 Vminpu=0.8 Vmaxpu=1.2 model=1 kW=2.6241521841182514 kvar=0.8429304779950015 Phases=1 yearly=res_kw_33_pu

New Load.load_p1ulv8837 conn=wye bus1=p1ulv8837.1.2.3 kV=0.48 Vminpu=0.8 Vmaxpu=1.2 model=1 kW=51.043034760958136 kvar=6.574105062207713 Phases=3 yearly=res_kw_606_pu

New Load.load_p1ulv11284 conn=wye bus1=p1ulv11284.1.2.3 kV=0.48 Vminpu=0.8 Vmaxpu=1.2 model=1 kW=44.08839941207295 kvar=13.845420111680763 Phases=3 yearly=com_kw_14160_pu

New Load.load_p1ulv11950_1 conn=wye bus1=p1ulv11950.1 kV=0.12 Vminpu=0.8 Vmaxpu=1.2 model=1 kW=10.375628907780863 kvar=4.616486224330442 Phases=1 yearly=res_kw_1267_pu

New Load.load_p1ulv11950_2 conn=wye bus1=p1ulv11950.2 kV=0.12 Vminpu=0.8 Vmaxpu=1.2 model=1 kW=10.375628907780863 kvar=4.616486224330442 Phases=1 yearly=res_kw_1267_pu

New Load.load_p1ulv11951_1 conn=wye bus1=p1ulv11951.1 kV=0.12 Vminpu=0.8 Vmaxpu=1.2 model=1 kW=9.341738473663403 kvar=2.018548151169967 Phases=1 yearly=res_kw_504_pu

New Load.load_p1ulv11951_2 conn=wye bus1=p1ulv11951.2 kV=0.12 Vminpu=0.8 Vmaxpu=1.2 model=1 kW=9.341738473663403 kvar=2.018548151169967 Phases=1 yearly=res_kw_504_pu

New Load.load_p1ulv11952_1 conn=wye bus1=p1ulv11952.1 kV=0.12 Vminpu=0.8 Vmaxpu=1.2 model=1 kW=2.40000228705824 kvar=1.0173787262529668 Phases=1 yearly=res_kw_1205_pu

New Load.load_p1ulv11952_2 conn=wye bus1=p1ulv11952.2 kV=0.12 Vminpu=0.8 Vmaxpu=1.2 model=1 kW=2.40000228705824 kvar=1.0173787262529668 Phases=1 yearly=res_kw_1205_pu

New Load.load_p1ulv11953 conn=wye bus1=p1ulv11953.1.2.3 kV=0.48 Vminpu=0.8 Vmaxpu=1.2 model=1 kW=43.73505631398508 kvar=5.0290236670440045 Phases=3 yearly=res_kw_598_pu

New Load.load_p1ulv11954 conn=wye bus1=p1ulv11954.1.2.3 kV=0.48 Vminpu=0.8 Vmaxpu=1.2 model=1 kW=27.31413429007533 kvar=2.0116721357119838 Phases=3 yearly=res_kw_123_pu

New Load.load_p1ulv11955 conn=wye bus1=p1ulv11955.1.2.3 kV=0.48 Vminpu=0.8 Vmaxpu=1.2 model=1 kW=43.73505631398508 kvar=5.0290236670440045 Phases=3 yearly=res_kw_598_pu

New Load.load_p1ulv11956 conn=wye bus1=p1ulv11956.1.2.3 kV=0.48 Vminpu=0.8 Vmaxpu=1.2 model=1 kW=43.73505631398508 kvar=5.0290236670440045 Phases=3 yearly=res_kw_598_pu

New Load.load_p1ulv11957 conn=wye bus1=p1ulv11957.1.2.3 kV=0.48 Vminpu=0.8 Vmaxpu=1.2 model=1 kW=43.73505631398508 kvar=5.0290236670440045 Phases=3 yearly=res_kw_598_pu

New Load.load_p1ulv11958_1 conn=wye bus1=p1ulv11958.1 kV=0.12 Vminpu=0.8 Vmaxpu=1.2 model=1 kW=1.4493292356011218 kvar=1.1002454873547782 Phases=1 yearly=res_kw_62_pu

New Load.load_p1ulv11958_2 conn=wye bus1=p1ulv11958.2 kV=0.12 Vminpu=0.8 Vmaxpu=1.2 model=1 kW=1.4493292356011218 kvar=1.1002454873547782 Phases=1 yearly=res_kw_62_pu

New Load.load_p1ulv12937 conn=wye bus1=p1ulv12937.1.2.3 kV=0.48 Vminpu=0.8 Vmaxpu=1.2 model=1 kW=26.38984917731413 kvar=1.0281778012855651 Phases=3 yearly=res_kw_268_pu

New Load.load_p1ulv13040_1 conn=wye bus1=p1ulv13040.1 kV=0.12 Vminpu=0.8 Vmaxpu=1.2 model=1 kW=10.375628907780863 kvar=4.616486224330442 Phases=1 yearly=res_kw_1267_pu

New Load.load_p1ulv13040_2 conn=wye bus1=p1ulv13040.2 kV=0.12 Vminpu=0.8 Vmaxpu=1.2 model=1 kW=10.375628907780863 kvar=4.616486224330442 Phases=1 yearly=res_kw_1267_pu

New Load.load_p1ulv13099 conn=wye bus1=p1ulv13099.1.2.3 kV=0.48 Vminpu=0.8 Vmaxpu=1.2 model=1 kW=27.31413429007533 kvar=2.0116721357119838 Phases=3 yearly=res_kw_123_pu

New Load.load_p1ulv13413_1 conn=wye bus1=p1ulv13413.1 kV=0.12 Vminpu=0.8 Vmaxpu=1.2 model=1 kW=4.666080754031652 kvar=0.9704814918535188 Phases=1 yearly=res_kw_280_pu

New Load.load_p1ulv13413_2 conn=wye bus1=p1ulv13413.2 kV=0.12 Vminpu=0.8 Vmaxpu=1.2 model=1 kW=4.666080754031652 kvar=0.9704814918535188 Phases=1 yearly=res_kw_280_pu

New Load.load_p1ulv13461 conn=wye bus1=p1ulv13461.1.2.3 kV=0.48 Vminpu=0.8 Vmaxpu=1.2 model=1 kW=43.73505631398508 kvar=5.0290236670440045 Phases=3 yearly=res_kw_598_pu

New Load.load_p1ulv13621 conn=wye bus1=p1ulv13621.1.2.3 kV=0.48 Vminpu=0.8 Vmaxpu=1.2 model=1 kW=43.69867821620363 kvar=6.177113536060882 Phases=3 yearly=com_kw_13196_pu

New Load.load_p1ulv13711 conn=wye bus1=p1ulv13711.1.2.3 kV=0.48 Vminpu=0.8 Vmaxpu=1.2 model=1 kW=39.386431426010155 kvar=9.002515961767303 Phases=3 yearly=res_kw_617_pu

New Load.load_p1ulv13743 conn=wye bus1=p1ulv13743.1.2.3 kV=0.48 Vminpu=0.8 Vmaxpu=1.2 model=1 kW=27.31413429007533 kvar=2.0116721357119838 Phases=3 yearly=res_kw_123_pu

New Load.load_p1ulv13832 conn=wye bus1=p1ulv13832.1.2.3 kV=0.48 Vminpu=0.8 Vmaxpu=1.2 model=1 kW=82.07638060650609 kvar=4.1271221195637455 Phases=3 yearly=com_kw_14522_pu

New Load.load_p1ulv13849_1 conn=wye bus1=p1ulv13849.1 kV=0.12 Vminpu=0.8 Vmaxpu=1.2 model=1 kW=2.901745080312197 kvar=1.2924395298142213 Phases=1 yearly=res_kw_225_pu

New Load.load_p1ulv13849_2 conn=wye bus1=p1ulv13849.2 kV=0.12 Vminpu=0.8 Vmaxpu=1.2 model=1 kW=2.901745080312197 kvar=1.2924395298142213 Phases=1 yearly=res_kw_225_pu

New Load.load_p1ulv13879 conn=wye bus1=p1ulv13879.1.2.3 kV=0.48 Vminpu=0.8 Vmaxpu=1.2 model=1 kW=61.67019452009947 kvar=7.714241992502668 Phases=3 yearly=res_kw_1181_pu

New Load.load_p1ulv13931_1 conn=wye bus1=p1ulv13931.1 kV=0.12 Vminpu=0.8 Vmaxpu=1.2 model=1 kW=5.096065176353652 kvar=0.20326988307277757 Phases=1 yearly=com_kw_14723_pu

New Load.load_p1ulv13931_2 conn=wye bus1=p1ulv13931.2 kV=0.12 Vminpu=0.8 Vmaxpu=1.2 model=1 kW=5.096065176353652 kvar=0.20326988307277757 Phases=1 yearly=com_kw_14723_pu

New Load.load_p1ulv13981 conn=wye bus1=p1ulv13981.1.2.3 kV=0.48 Vminpu=0.8 Vmaxpu=1.2 model=1 kW=43.73505631398508 kvar=5.0290236670440045 Phases=3 yearly=res_kw_598_pu

New Load.load_p1ulv14085_1 conn=wye bus1=p1ulv14085.1 kV=0.12 Vminpu=0.8 Vmaxpu=1.2 model=1 kW=5.004398133545832 kvar=1.6986912664433456 Phases=1 yearly=res_kw_101_pu

New Load.load_p1ulv14085_2 conn=wye bus1=p1ulv14085.2 kV=0.12 Vminpu=0.8 Vmaxpu=1.2 model=1 kW=5.004398133545832 kvar=1.6986912664433456 Phases=1 yearly=res_kw_101_pu

New Load.load_p1ulv14661_1 conn=wye bus1=p1ulv14661.1 kV=0.12 Vminpu=0.8 Vmaxpu=1.2 model=1 kW=10.83188881764283 kvar=1.3668339336555673 Phases=1 yearly=res_kw_82_pu

New Load.load_p1ulv14661_2 conn=wye bus1=p1ulv14661.2 kV=0.12 Vminpu=0.8 Vmaxpu=1.2 model=1 kW=10.83188881764283 kvar=1.3668339336555673 Phases=1 yearly=res_kw_82_pu

New Load.load_p1ulv14678_1 conn=wye bus1=p1ulv14678.1 kV=0.12 Vminpu=0.8 Vmaxpu=1.2 model=1 kW=3.789884331965197 kvar=1.0036576715582408 Phases=1 yearly=res_kw_670_pu

New Load.load_p1ulv14678_2 conn=wye bus1=p1ulv14678.2 kV=0.12 Vminpu=0.8 Vmaxpu=1.2 model=1 kW=3.789884331965197 kvar=1.0036576715582408 Phases=1 yearly=res_kw_670_pu

New Load.load_p1ulv14707 conn=wye bus1=p1ulv14707.1.2.3 kV=0.48 Vminpu=0.8 Vmaxpu=1.2 model=1 kW=27.31413429007533 kvar=2.0116721357119838 Phases=3 yearly=res_kw_123_pu

New Load.load_p1ulv14787_1 conn=wye bus1=p1ulv14787.1 kV=0.12 Vminpu=0.8 Vmaxpu=1.2 model=1 kW=5.020630418662337 kvar=1.4660260271132275 Phases=1 yearly=res_kw_664_pu

New Load.load_p1ulv14787_2 conn=wye bus1=p1ulv14787.2 kV=0.12 Vminpu=0.8 Vmaxpu=1.2 model=1 kW=5.020630418662337 kvar=1.4660260271132275 Phases=1 yearly=res_kw_664_pu

New Load.load_p1ulv14805 conn=wye bus1=p1ulv14805.1.2.3 kV=0.48 Vminpu=0.8 Vmaxpu=1.2 model=1 kW=22.37300704356237 kvar=1.5751126418301655 Phases=3 yearly=res_kw_697_pu

New Load.load_p1ulv14944 conn=wye bus1=p1ulv14944.1.2.3 kV=0.48 Vminpu=0.8 Vmaxpu=1.2 model=1 kW=27.31413429007533 kvar=2.0116721357119838 Phases=3 yearly=res_kw_123_pu

New Load.load_p1ulv14988 conn=wye bus1=p1ulv14988.1.2.3 kV=0.48 Vminpu=0.8 Vmaxpu=1.2 model=1 kW=36.34419055562693 kvar=8.611444794393616 Phases=3 yearly=com_kw_13229_pu

New Load.load_p1ulv15042 conn=wye bus1=p1ulv15042.1.2.3 kV=0.48 Vminpu=0.8 Vmaxpu=1.2 model=1 kW=97.62845600875981 kvar=30.924794034655736 Phases=3 yearly=com_kw_13613_pu

New Load.load_p1ulv15178_1 conn=wye bus1=p1ulv15178.1 kV=0.12 Vminpu=0.8 Vmaxpu=1.2 model=1 kW=6.727252203449795 kvar=1.9067277455995406 Phases=1 yearly=res_kw_822_pu

New Load.load_p1ulv15178_2 conn=wye bus1=p1ulv15178.2 kV=0.12 Vminpu=0.8 Vmaxpu=1.2 model=1 kW=6.727252203449795 kvar=1.9067277455995406 Phases=1 yearly=res_kw_822_pu

New Load.load_p1ulv15304_1 conn=wye bus1=p1ulv15304.1 kV=0.12 Vminpu=0.8 Vmaxpu=1.2 model=1 kW=11.519913645766726 kvar=1.865620446374389 Phases=1 yearly=res_kw_754_pu

New Load.load_p1ulv15304_2 conn=wye bus1=p1ulv15304.2 kV=0.12 Vminpu=0.8 Vmaxpu=1.2 model=1 kW=11.519913645766726 kvar=1.865620446374389 Phases=1 yearly=res_kw_754_pu

New Load.load_p1ulv15330_1 conn=wye bus1=p1ulv15330.1 kV=0.12 Vminpu=0.8 Vmaxpu=1.2 model=1 kW=13.793674087523804 kvar=0.8506323916315093 Phases=1 yearly=com_kw_14989_pu

New Load.load_p1ulv15330_2 conn=wye bus1=p1ulv15330.2 kV=0.12 Vminpu=0.8 Vmaxpu=1.2 model=1 kW=13.793674087523804 kvar=0.8506323916315093 Phases=1 yearly=com_kw_14989_pu

New Load.load_p1ulv15448 conn=wye bus1=p1ulv15448.1.2.3 kV=0.48 Vminpu=0.8 Vmaxpu=1.2 model=1 kW=31.56390894948716 kvar=5.59016195527881 Phases=3 yearly=res_kw_76_pu

New Load.load_p1ulv15498_1 conn=wye bus1=p1ulv15498.1 kV=0.12 Vminpu=0.8 Vmaxpu=1.2 model=1 kW=2.1271986187473146 kvar=0.5751959086648131 Phases=1 yearly=com_kw_14402_pu

New Load.load_p1ulv15498_2 conn=wye bus1=p1ulv15498.2 kV=0.12 Vminpu=0.8 Vmaxpu=1.2 model=1 kW=2.1271986187473146 kvar=0.5751959086648131 Phases=1 yearly=com_kw_14402_pu

New Load.load_p1ulv15691 conn=wye bus1=p1ulv15691.1.2.3 kV=0.48 Vminpu=0.8 Vmaxpu=1.2 model=1 kW=31.56390894948716 kvar=5.59016195527881 Phases=3 yearly=res_kw_76_pu

New Load.load_p1ulv15734 conn=wye bus1=p1ulv15734.1.2.3 kV=0.48 Vminpu=0.8 Vmaxpu=1.2 model=1 kW=112.42316607843945 kvar=32.05746909968399 Phases=3 yearly=com_kw_13000_pu

New Load.load_p1ulv15817_1 conn=wye bus1=p1ulv15817.1 kV=0.12 Vminpu=0.8 Vmaxpu=1.2 model=1 kW=4.80777430622987 kvar=1.4183053271274066 Phases=1 yearly=res_kw_1023_pu

New Load.load_p1ulv15817_2 conn=wye bus1=p1ulv15817.2 kV=0.12 Vminpu=0.8 Vmaxpu=1.2 model=1 kW=4.80777430622987 kvar=1.4183053271274066 Phases=1 yearly=res_kw_1023_pu

New Load.load_p1ulv16261_1 conn=wye bus1=p1ulv16261.1 kV=0.12 Vminpu=0.8 Vmaxpu=1.2 model=1 kW=8.447919937810639 kvar=4.074999759912348 Phases=1 yearly=res_kw_461_pu

New Load.load_p1ulv16261_2 conn=wye bus1=p1ulv16261.2 kV=0.12 Vminpu=0.8 Vmaxpu=1.2 model=1 kW=8.447919937810639 kvar=4.074999759912348 Phases=1 yearly=res_kw_461_pu

New Load.load_p1ulv16262_1 conn=wye bus1=p1ulv16262.1 kV=0.12 Vminpu=0.8 Vmaxpu=1.2 model=1 kW=6.897997484512368 kvar=1.5073573946072503 Phases=1 yearly=res_kw_40_pu

New Load.load_p1ulv16262_2 conn=wye bus1=p1ulv16262.2 kV=0.12 Vminpu=0.8 Vmaxpu=1.2 model=1 kW=6.897997484512368 kvar=1.5073573946072503 Phases=1 yearly=res_kw_40_pu

New Load.load_p1ulv16263_1 conn=wye bus1=p1ulv16263.1 kV=0.12 Vminpu=0.8 Vmaxpu=1.2 model=1 kW=2.1894046505184286 kvar=0.7281040757251952 Phases=1 yearly=res_kw_1042_pu

New Load.load_p1ulv16263_2 conn=wye bus1=p1ulv16263.2 kV=0.12 Vminpu=0.8 Vmaxpu=1.2 model=1 kW=2.1894046505184286 kvar=0.7281040757251952 Phases=1 yearly=res_kw_1042_pu

New Load.load_p1ulv16264_1 conn=wye bus1=p1ulv16264.1 kV=0.12 Vminpu=0.8 Vmaxpu=1.2 model=1 kW=1.8883480354683608 kvar=0.7466800149503461 Phases=1 yearly=res_kw_715_pu

New Load.load_p1ulv16264_2 conn=wye bus1=p1ulv16264.2 kV=0.12 Vminpu=0.8 Vmaxpu=1.2 model=1 kW=1.8883480354683608 kvar=0.7466800149503461 Phases=1 yearly=res_kw_715_pu

New Load.load_p1ulv16265_1 conn=wye bus1=p1ulv16262.1 kV=0.12 Vminpu=0.8 Vmaxpu=1.2 model=1 kW=2.605021030189827 kvar=1.0007509371876184 Phases=1 yearly=res_kw_24_pu

New Load.load_p1ulv16265_2 conn=wye bus1=p1ulv16262.2 kV=0.12 Vminpu=0.8 Vmaxpu=1.2 model=1 kW=2.605021030189827 kvar=1.0007509371876184 Phases=1 yearly=res_kw_24_pu

New Load.load_p1ulv16266_1 conn=wye bus1=p1ulv16266.1 kV=0.12 Vminpu=0.8 Vmaxpu=1.2 model=1 kW=1.8618983584330409 kvar=0.7337589993741062 Phases=1 yearly=res_kw_141_pu

New Load.load_p1ulv16266_2 conn=wye bus1=p1ulv16266.2 kV=0.12 Vminpu=0.8 Vmaxpu=1.2 model=1 kW=1.8618983584330409 kvar=0.7337589993741062 Phases=1 yearly=res_kw_141_pu

New Load.load_p1ulv16267_1 conn=wye bus1=p1ulv16266.1 kV=0.12 Vminpu=0.8 Vmaxpu=1.2 model=1 kW=13.251431311430247 kvar=0.1493407165487586 Phases=1 yearly=com_kw_14976_pu

New Load.load_p1ulv16267_2 conn=wye bus1=p1ulv16266.2 kV=0.12 Vminpu=0.8 Vmaxpu=1.2 model=1 kW=13.251431311430247 kvar=0.1493407165487586 Phases=1 yearly=com_kw_14976_pu

New Load.load_p1ulv16268_1 conn=wye bus1=p1ulv16268.1 kV=0.12 Vminpu=0.8 Vmaxpu=1.2 model=1 kW=13.251431311430247 kvar=0.1493407165487586 Phases=1 yearly=com_kw_14976_pu

New Load.load_p1ulv16268_2 conn=wye bus1=p1ulv16268.2 kV=0.12 Vminpu=0.8 Vmaxpu=1.2 model=1 kW=13.251431311430247 kvar=0.1493407165487586 Phases=1 yearly=com_kw_14976_pu

New Load.load_p1ulv16269_1 conn=wye bus1=p1ulv16269.1 kV=0.12 Vminpu=0.8 Vmaxpu=1.2 model=1 kW=5.4313165050257775 kvar=1.3233518473888222 Phases=1 yearly=res_kw_355_pu

New Load.load_p1ulv16269_2 conn=wye bus1=p1ulv16269.2 kV=0.12 Vminpu=0.8 Vmaxpu=1.2 model=1 kW=5.4313165050257775 kvar=1.3233518473888222 Phases=1 yearly=res_kw_355_pu

New Load.load_p1ulv16270_1 conn=wye bus1=p1ulv16270.1 kV=0.12 Vminpu=0.8 Vmaxpu=1.2 model=1 kW=2.1376631749204993 kvar=0.6218033466021168 Phases=1 yearly=res_kw_93_pu

New Load.load_p1ulv16270_2 conn=wye bus1=p1ulv16270.2 kV=0.12 Vminpu=0.8 Vmaxpu=1.2 model=1 kW=2.1376631749204993 kvar=0.6218033466021168 Phases=1 yearly=res_kw_93_pu

New Load.load_p1ulv16271_1 conn=wye bus1=p1ulv16270.1 kV=0.12 Vminpu=0.8 Vmaxpu=1.2 model=1 kW=1.8618983584330409 kvar=0.7337589993741062 Phases=1 yearly=res_kw_141_pu

New Load.load_p1ulv16271_2 conn=wye bus1=p1ulv16270.2 kV=0.12 Vminpu=0.8 Vmaxpu=1.2 model=1 kW=1.8618983584330409 kvar=0.7337589993741062 Phases=1 yearly=res_kw_141_pu

New Load.load_p1ulv16272_1 conn=wye bus1=p1ulv16272.1 kV=0.12 Vminpu=0.8 Vmaxpu=1.2 model=1 kW=2.605021030189827 kvar=1.0007509371876184 Phases=1 yearly=res_kw_24_pu

New Load.load_p1ulv16272_2 conn=wye bus1=p1ulv16272.2 kV=0.12 Vminpu=0.8 Vmaxpu=1.2 model=1 kW=2.605021030189827 kvar=1.0007509371876184 Phases=1 yearly=res_kw_24_pu

New Load.load_p1ulv16273_1 conn=wye bus1=p1ulv16273.1 kV=0.12 Vminpu=0.8 Vmaxpu=1.2 model=1 kW=2.1376631749204993 kvar=0.6218033466021168 Phases=1 yearly=res_kw_93_pu

New Load.load_p1ulv16273_2 conn=wye bus1=p1ulv16273.2 kV=0.12 Vminpu=0.8 Vmaxpu=1.2 model=1 kW=2.1376631749204993 kvar=0.6218033466021168 Phases=1 yearly=res_kw_93_pu

New Load.load_p1ulv16274_1 conn=wye bus1=p1ulv16274.1 kV=0.12 Vminpu=0.8 Vmaxpu=1.2 model=1 kW=2.1376631749204993 kvar=0.6218033466021168 Phases=1 yearly=res_kw_93_pu

New Load.load_p1ulv16274_2 conn=wye bus1=p1ulv16274.2 kV=0.12 Vminpu=0.8 Vmaxpu=1.2 model=1 kW=2.1376631749204993 kvar=0.6218033466021168 Phases=1 yearly=res_kw_93_pu

New Load.load_p1ulv16275_1 conn=wye bus1=p1ulv16275.1 kV=0.12 Vminpu=0.8 Vmaxpu=1.2 model=1 kW=2.1376631749204993 kvar=0.6218033466021168 Phases=1 yearly=res_kw_93_pu

New Load.load_p1ulv16275_2 conn=wye bus1=p1ulv16275.2 kV=0.12 Vminpu=0.8 Vmaxpu=1.2 model=1 kW=2.1376631749204993 kvar=0.6218033466021168 Phases=1 yearly=res_kw_93_pu

New Load.load_p1ulv16276_1 conn=wye bus1=p1ulv16276.1 kV=0.12 Vminpu=0.8 Vmaxpu=1.2 model=1 kW=2.1376631749204993 kvar=0.6218033466021168 Phases=1 yearly=res_kw_93_pu

New Load.load_p1ulv16276_2 conn=wye bus1=p1ulv16276.2 kV=0.12 Vminpu=0.8 Vmaxpu=1.2 model=1 kW=2.1376631749204993 kvar=0.6218033466021168 Phases=1 yearly=res_kw_93_pu

New Load.load_p1ulv16277_1 conn=wye bus1=p1ulv16277.1 kV=0.12 Vminpu=0.8 Vmaxpu=1.2 model=1 kW=2.6241521841182514 kvar=0.8429304779950015 Phases=1 yearly=res_kw_33_pu

New Load.load_p1ulv16277_2 conn=wye bus1=p1ulv16277.2 kV=0.12 Vminpu=0.8 Vmaxpu=1.2 model=1 kW=2.6241521841182514 kvar=0.8429304779950015 Phases=1 yearly=res_kw_33_pu

New Load.load_p1ulv16278_1 conn=wye bus1=p1ulv16278.1 kV=0.12 Vminpu=0.8 Vmaxpu=1.2 model=1 kW=2.605021030189827 kvar=1.0007509371876184 Phases=1 yearly=res_kw_24_pu

New Load.load_p1ulv16278_2 conn=wye bus1=p1ulv16278.2 kV=0.12 Vminpu=0.8 Vmaxpu=1.2 model=1 kW=2.605021030189827 kvar=1.0007509371876184 Phases=1 yearly=res_kw_24_pu

New Load.load_p1ulv16279_1 conn=wye bus1=p1ulv16279.1 kV=0.12 Vminpu=0.8 Vmaxpu=1.2 model=1 kW=5.675346369339635 kvar=1.238985226090579 Phases=1 yearly=res_kw_1186_pu

New Load.load_p1ulv16279_2 conn=wye bus1=p1ulv16279.2 kV=0.12 Vminpu=0.8 Vmaxpu=1.2 model=1 kW=5.675346369339635 kvar=1.238985226090579 Phases=1 yearly=res_kw_1186_pu

New Load.load_p1ulv16280_1 conn=wye bus1=p1ulv16280.1 kV=0.12 Vminpu=0.8 Vmaxpu=1.2 model=1 kW=1.8618983584330409 kvar=0.7337589993741062 Phases=1 yearly=res_kw_141_pu

New Load.load_p1ulv16280_2 conn=wye bus1=p1ulv16280.2 kV=0.12 Vminpu=0.8 Vmaxpu=1.2 model=1 kW=1.8618983584330409 kvar=0.7337589993741062 Phases=1 yearly=res_kw_141_pu

New Load.load_p1ulv16281_1 conn=wye bus1=p1ulv16281.1 kV=0.12 Vminpu=0.8 Vmaxpu=1.2 model=1 kW=5.073052946727468 kvar=0.334720435390571 Phases=1 yearly=com_kw_14872_pu

New Load.load_p1ulv16281_2 conn=wye bus1=p1ulv16281.2 kV=0.12 Vminpu=0.8 Vmaxpu=1.2 model=1 kW=5.073052946727468 kvar=0.334720435390571 Phases=1 yearly=com_kw_14872_pu

New Load.load_p1ulv16282_1 conn=wye bus1=p1ulv16282.1 kV=0.12 Vminpu=0.8 Vmaxpu=1.2 model=1 kW=2.1894046505184286 kvar=0.7281040757251952 Phases=1 yearly=res_kw_1042_pu

New Load.load_p1ulv16282_2 conn=wye bus1=p1ulv16282.2 kV=0.12 Vminpu=0.8 Vmaxpu=1.2 model=1 kW=2.1894046505184286 kvar=0.7281040757251952 Phases=1 yearly=res_kw_1042_pu

New Load.load_p1ulv16283_1 conn=wye bus1=p1ulv16282.1 kV=0.12 Vminpu=0.8 Vmaxpu=1.2 model=1 kW=4.926448212993724 kvar=1.2834746439893137 Phases=1 yearly=res_kw_209_pu

New Load.load_p1ulv16283_2 conn=wye bus1=p1ulv16282.2 kV=0.12 Vminpu=0.8 Vmaxpu=1.2 model=1 kW=4.926448212993724 kvar=1.2834746439893137 Phases=1 yearly=res_kw_209_pu

New Load.load_p1ulv16284_1 conn=wye bus1=p1ulv16284.1 kV=0.12 Vminpu=0.8 Vmaxpu=1.2 model=1 kW=2.40000228705824 kvar=1.0173787262529668 Phases=1 yearly=res_kw_1205_pu

New Load.load_p1ulv16284_2 conn=wye bus1=p1ulv16284.2 kV=0.12 Vminpu=0.8 Vmaxpu=1.2 model=1 kW=2.40000228705824 kvar=1.0173787262529668 Phases=1 yearly=res_kw_1205_pu

New Load.load_p1ulv16285_1 conn=wye bus1=p1ulv16285.1 kV=0.12 Vminpu=0.8 Vmaxpu=1.2 model=1 kW=2.605021030189827 kvar=1.0007509371876184 Phases=1 yearly=res_kw_24_pu

New Load.load_p1ulv16285_2 conn=wye bus1=p1ulv16285.2 kV=0.12 Vminpu=0.8 Vmaxpu=1.2 model=1 kW=2.605021030189827 kvar=1.0007509371876184 Phases=1 yearly=res_kw_24_pu

New Load.load_p1ulv16286_1 conn=wye bus1=p1ulv16286.1 kV=0.12 Vminpu=0.8 Vmaxpu=1.2 model=1 kW=2.605021030189827 kvar=1.0007509371876184 Phases=1 yearly=res_kw_24_pu

New Load.load_p1ulv16286_2 conn=wye bus1=p1ulv16286.2 kV=0.12 Vminpu=0.8 Vmaxpu=1.2 model=1 kW=2.605021030189827 kvar=1.0007509371876184 Phases=1 yearly=res_kw_24_pu
