New Load.load_p1ulv3558_1 conn=wye bus1=p1ulv3558.1 kV=0.12 Vminpu=0.8 Vmaxpu=1.2 model=1 kW=3.6844020253442458 kvar=1.4451491397155931 Phases=1 yearly=res_kw_1258_pu

New Load.load_p1ulv3558_2 conn=wye bus1=p1ulv3558.2 kV=0.12 Vminpu=0.8 Vmaxpu=1.2 model=1 kW=3.6844020253442458 kvar=1.4451491397155931 Phases=1 yearly=res_kw_1258_pu

New Load.load_p1ulv3559_1 conn=wye bus1=p1ulv3559.1 kV=0.12 Vminpu=0.8 Vmaxpu=1.2 model=1 kW=3.8748715750127736 kvar=1.5614372175332516 Phases=1 yearly=res_kw_517_pu

New Load.load_p1ulv3559_2 conn=wye bus1=p1ulv3559.2 kV=0.12 Vminpu=0.8 Vmaxpu=1.2 model=1 kW=3.8748715750127736 kvar=1.5614372175332516 Phases=1 yearly=res_kw_517_pu

New Load.load_p1ulv3560_1 conn=wye bus1=p1ulv3560.1 kV=0.12 Vminpu=0.8 Vmaxpu=1.2 model=1 kW=5.723135606665604 kvar=1.5038194991101048 Phases=1 yearly=res_kw_1228_pu

New Load.load_p1ulv3560_2 conn=wye bus1=p1ulv3560.2 kV=0.12 Vminpu=0.8 Vmaxpu=1.2 model=1 kW=5.723135606665604 kvar=1.5038194991101048 Phases=1 yearly=res_kw_1228_pu

New Load.load_p1ulv3561_1 conn=wye bus1=p1ulv3561.1 kV=0.12 Vminpu=0.8 Vmaxpu=1.2 model=1 kW=9.666699253995569 kvar=2.090221480167897 Phases=1 yearly=res_kw_46_pu

New Load.load_p1ulv3561_2 conn=wye bus1=p1ulv3561.2 kV=0.12 Vminpu=0.8 Vmaxpu=1.2 model=1 kW=9.666699253995569 kvar=2.090221480167897 Phases=1 yearly=res_kw_46_pu

New Load.load_p1ulv3562_1 conn=wye bus1=p1ulv3562.1 kV=0.12 Vminpu=0.8 Vmaxpu=1.2 model=1 kW=3.469755020859998 kvar=0.8941520384931253 Phases=1 yearly=res_kw_4_pu

New Load.load_p1ulv3562_2 conn=wye bus1=p1ulv3562.2 kV=0.12 Vminpu=0.8 Vmaxpu=1.2 model=1 kW=3.469755020859998 kvar=0.8941520384931253 Phases=1 yearly=res_kw_4_pu

New Load.load_p1ulv3563_1 conn=wye bus1=p1ulv3563.1 kV=0.12 Vminpu=0.8 Vmaxpu=1.2 model=1 kW=9.666699253995569 kvar=2.090221480167897 Phases=1 yearly=res_kw_46_pu

New Load.load_p1ulv3563_2 conn=wye bus1=p1ulv3563.2 kV=0.12 Vminpu=0.8 Vmaxpu=1.2 model=1 kW=9.666699253995569 kvar=2.090221480167897 Phases=1 yearly=res_kw_46_pu

New Load.load_p1ulv3564_1 conn=wye bus1=p1ulv3564.1 kV=0.12 Vminpu=0.8 Vmaxpu=1.2 model=1 kW=5.5396149838334106 kvar=1.3495096504699533 Phases=1 yearly=res_kw_1273_pu

New Load.load_p1ulv3564_2 conn=wye bus1=p1ulv3564.2 kV=0.12 Vminpu=0.8 Vmaxpu=1.2 model=1 kW=5.5396149838334106 kvar=1.3495096504699533 Phases=1 yearly=res_kw_1273_pu

New Load.load_p1ulv3565_1 conn=wye bus1=p1ulv3565.1 kV=0.12 Vminpu=0.8 Vmaxpu=1.2 model=1 kW=10.375628907780863 kvar=4.616486224330442 Phases=1 yearly=res_kw_1267_pu

New Load.load_p1ulv3565_2 conn=wye bus1=p1ulv3565.2 kV=0.12 Vminpu=0.8 Vmaxpu=1.2 model=1 kW=10.375628907780863 kvar=4.616486224330442 Phases=1 yearly=res_kw_1267_pu

New Load.load_p1ulv3566_1 conn=wye bus1=p1ulv3566.1 kV=0.12 Vminpu=0.8 Vmaxpu=1.2 model=1 kW=4.47171304939181 kvar=1.1676103385976955 Phases=1 yearly=res_kw_627_pu

New Load.load_p1ulv3566_2 conn=wye bus1=p1ulv3566.2 kV=0.12 Vminpu=0.8 Vmaxpu=1.2 model=1 kW=4.47171304939181 kvar=1.1676103385976955 Phases=1 yearly=res_kw_627_pu

New Load.load_p1ulv3567_1 conn=wye bus1=p1ulv3567.1 kV=0.12 Vminpu=0.8 Vmaxpu=1.2 model=1 kW=2.6241521841182514 kvar=0.8429304779950015 Phases=1 yearly=res_kw_33_pu

New Load.load_p1ulv3567_2 conn=wye bus1=p1ulv3567.2 kV=0.12 Vminpu=0.8 Vmaxpu=1.2 model=1 kW=2.6241521841182514 kvar=0.8429304779950015 Phases=1 yearly=res_kw_33_pu

New Load.load_p1ulv3568_1 conn=wye bus1=p1ulv3568.1 kV=0.12 Vminpu=0.8 Vmaxpu=1.2 model=1 kW=6.007202613688192 kvar=1.5186407953688474 Phases=1 yearly=res_kw_20_pu

New Load.load_p1ulv3568_2 conn=wye bus1=p1ulv3568.2 kV=0.12 Vminpu=0.8 Vmaxpu=1.2 model=1 kW=6.007202613688192 kvar=1.5186407953688474 Phases=1 yearly=res_kw_20_pu

New Load.load_p1ulv3572_1 conn=wye bus1=p1ulv3572.1 kV=0.12 Vminpu=0.8 Vmaxpu=1.2 model=1 kW=5.840853226378247 kvar=1.1903019185873431 Phases=1 yearly=res_kw_892_pu

New Load.load_p1ulv3572_2 conn=wye bus1=p1ulv3572.2 kV=0.12 Vminpu=0.8 Vmaxpu=1.2 model=1 kW=5.840853226378247 kvar=1.1903019185873431 Phases=1 yearly=res_kw_892_pu

New Load.load_p1ulv3573_1 conn=wye bus1=p1ulv3573.1 kV=0.12 Vminpu=0.8 Vmaxpu=1.2 model=1 kW=5.723135606665604 kvar=1.5038194991101048 Phases=1 yearly=res_kw_1228_pu

New Load.load_p1ulv3573_2 conn=wye bus1=p1ulv3573.2 kV=0.12 Vminpu=0.8 Vmaxpu=1.2 model=1 kW=5.723135606665604 kvar=1.5038194991101048 Phases=1 yearly=res_kw_1228_pu

New Load.load_p1ulv3574_1 conn=wye bus1=p1ulv3574.1 kV=0.12 Vminpu=0.8 Vmaxpu=1.2 model=1 kW=11.457721527492426 kvar=1.3801854390555242 Phases=1 yearly=res_kw_861_pu

New Load.load_p1ulv3574_2 conn=wye bus1=p1ulv3574.2 kV=0.12 Vminpu=0.8 Vmaxpu=1.2 model=1 kW=11.457721527492426 kvar=1.3801854390555242 Phases=1 yearly=res_kw_861_pu

New Load.load_p1ulv3575_1 conn=wye bus1=p1ulv3575.1 kV=0.12 Vminpu=0.8 Vmaxpu=1.2 model=1 kW=5.436729579526792 kvar=1.2488470964899614 Phases=1 yearly=res_kw_454_pu

New Load.load_p1ulv3575_2 conn=wye bus1=p1ulv3575.2 kV=0.12 Vminpu=0.8 Vmaxpu=1.2 model=1 kW=5.436729579526792 kvar=1.2488470964899614 Phases=1 yearly=res_kw_454_pu

New Load.load_p1ulv3581_1 conn=wye bus1=p1ulv3581.1 kV=0.12 Vminpu=0.8 Vmaxpu=1.2 model=1 kW=4.817618468644212 kvar=1.1350426223715635 Phases=1 yearly=res_kw_843_pu

New Load.load_p1ulv3581_2 conn=wye bus1=p1ulv3581.2 kV=0.12 Vminpu=0.8 Vmaxpu=1.2 model=1 kW=4.817618468644212 kvar=1.1350426223715635 Phases=1 yearly=res_kw_843_pu

New Load.load_p1ulv3582_1 conn=wye bus1=p1ulv3582.1 kV=0.12 Vminpu=0.8 Vmaxpu=1.2 model=1 kW=6.139488924452324 kvar=1.0282575631325632 Phases=1 yearly=res_kw_421_pu

New Load.load_p1ulv3582_2 conn=wye bus1=p1ulv3582.2 kV=0.12 Vminpu=0.8 Vmaxpu=1.2 model=1 kW=6.139488924452324 kvar=1.0282575631325632 Phases=1 yearly=res_kw_421_pu

New Load.load_p1ulv3583_1 conn=wye bus1=p1ulv3583.1 kV=0.12 Vminpu=0.8 Vmaxpu=1.2 model=1 kW=9.188058575942842 kvar=1.4142394215506044 Phases=1 yearly=res_kw_1226_pu

New Load.load_p1ulv3583_2 conn=wye bus1=p1ulv3583.2 kV=0.12 Vminpu=0.8 Vmaxpu=1.2 model=1 kW=9.188058575942842 kvar=1.4142394215506044 Phases=1 yearly=res_kw_1226_pu

New Load.load_p1ulv3584_1 conn=wye bus1=p1ulv3584.1 kV=0.12 Vminpu=0.8 Vmaxpu=1.2 model=1 kW=5.436729579526792 kvar=1.2488470964899614 Phases=1 yearly=res_kw_454_pu

New Load.load_p1ulv3584_2 conn=wye bus1=p1ulv3584.2 kV=0.12 Vminpu=0.8 Vmaxpu=1.2 model=1 kW=5.436729579526792 kvar=1.2488470964899614 Phases=1 yearly=res_kw_454_pu

New Load.load_p1ulv3585_1 conn=wye bus1=p1ulv3585.1 kV=0.12 Vminpu=0.8 Vmaxpu=1.2 model=1 kW=3.308494316062581 kvar=0.7969773391329138 Phases=1 yearly=res_kw_626_pu

New Load.load_p1ulv3585_2 conn=wye bus1=p1ulv3585.2 kV=0.12 Vminpu=0.8 Vmaxpu=1.2 model=1 kW=3.308494316062581 kvar=0.7969773391329138 Phases=1 yearly=res_kw_626_pu

New Load.load_p1ulv7258_1 conn=wye bus1=p1ulv7258.1 kV=0.12 Vminpu=0.8 Vmaxpu=1.2 model=1 kW=6.495867403886884 kvar=1.0074089308244782 Phases=1 yearly=res_kw_597_pu

New Load.load_p1ulv7258_2 conn=wye bus1=p1ulv7258.2 kV=0.12 Vminpu=0.8 Vmaxpu=1.2 model=1 kW=6.495867403886884 kvar=1.0074089308244782 Phases=1 yearly=res_kw_597_pu

New Load.load_p1ulv7262_1 conn=wye bus1=p1ulv7262.1 kV=0.12 Vminpu=0.8 Vmaxpu=1.2 model=1 kW=4.642179748908938 kvar=0.176462268654847 Phases=1 yearly=com_kw_15157_pu

New Load.load_p1ulv7262_2 conn=wye bus1=p1ulv7262.2 kV=0.12 Vminpu=0.8 Vmaxpu=1.2 model=1 kW=4.642179748908938 kvar=0.176462268654847 Phases=1 yearly=com_kw_15157_pu

New Load.load_p1ulv7695_1 conn=wye bus1=p1ulv7695.1 kV=0.12 Vminpu=0.8 Vmaxpu=1.2 model=1 kW=6.484182191435283 kvar=0.5406267399205957 Phases=1 yearly=res_kw_160_pu

New Load.load_p1ulv7695_2 conn=wye bus1=p1ulv7695.2 kV=0.12 Vminpu=0.8 Vmaxpu=1.2 model=1 kW=6.484182191435283 kvar=0.5406267399205957 Phases=1 yearly=res_kw_160_pu

New Load.load_p1ulv7696 conn=wye bus1=p1ulv7696.1.2.3 kV=0.48 Vminpu=0.8 Vmaxpu=1.2 model=1 kW=37.25108334424002 kvar=4.1309232117527666 Phases=3 yearly=res_kw_1040_pu

New Load.load_p1ulv7697_1 conn=wye bus1=p1ulv7697.1 kV=0.12 Vminpu=0.8 Vmaxpu=1.2 model=1 kW=3.3022463090013963 kvar=0.3558858552969609 Phases=1 yearly=res_kw_236_pu

New Load.load_p1ulv7697_2 conn=wye bus1=p1ulv7697.2 kV=0.12 Vminpu=0.8 Vmaxpu=1.2 model=1 kW=3.3022463090013963 kvar=0.3558858552969609 Phases=1 yearly=res_kw_236_pu

New Load.load_p1ulv7698 conn=wye bus1=p1ulv7698.1.2.3 kV=0.48 Vminpu=0.8 Vmaxpu=1.2 model=1 kW=17.66011877759799 kvar=0.6621589123138862 Phases=3 yearly=res_kw_630_pu

New Load.load_p1ulv7699 conn=wye bus1=p1ulv7699.1.2.3 kV=0.48 Vminpu=0.8 Vmaxpu=1.2 model=1 kW=26.38984917731413 kvar=1.0281778012855651 Phases=3 yearly=res_kw_268_pu

New Load.load_p1ulv7700_1 conn=wye bus1=p1ulv7700.1 kV=0.12 Vminpu=0.8 Vmaxpu=1.2 model=1 kW=2.40000228705824 kvar=1.0173787262529668 Phases=1 yearly=res_kw_1205_pu

New Load.load_p1ulv7700_2 conn=wye bus1=p1ulv7700.2 kV=0.12 Vminpu=0.8 Vmaxpu=1.2 model=1 kW=2.40000228705824 kvar=1.0173787262529668 Phases=1 yearly=res_kw_1205_pu

New Load.load_p1ulv7702_1 conn=wye bus1=p1ulv7702.1 kV=0.12 Vminpu=0.8 Vmaxpu=1.2 model=1 kW=4.198936522204728 kvar=0.9501139000968819 Phases=1 yearly=res_kw_229_pu

New Load.load_p1ulv7702_2 conn=wye bus1=p1ulv7702.2 kV=0.12 Vminpu=0.8 Vmaxpu=1.2 model=1 kW=4.198936522204728 kvar=0.9501139000968819 Phases=1 yearly=res_kw_229_pu

New Load.load_p1ulv7703 conn=wye bus1=p1ulv7703.1.2.3 kV=0.48 Vminpu=0.8 Vmaxpu=1.2 model=1 kW=59.72846886319797 kvar=12.07608368967826 Phases=3 yearly=res_kw_217_pu

New Load.load_p1ulv7704 conn=wye bus1=p1ulv7704.1.2.3 kV=0.48 Vminpu=0.8 Vmaxpu=1.2 model=1 kW=34.5730176011772 kvar=3.8189999470768665 Phases=3 yearly=res_kw_910_pu

New Load.load_p1ulv7705_1 conn=wye bus1=p1ulv7705.1 kV=0.12 Vminpu=0.8 Vmaxpu=1.2 model=1 kW=5.466651771327982 kvar=1.2745975671486984 Phases=1 yearly=res_kw_933_pu

New Load.load_p1ulv7705_2 conn=wye bus1=p1ulv7705.2 kV=0.12 Vminpu=0.8 Vmaxpu=1.2 model=1 kW=5.466651771327982 kvar=1.2745975671486984 Phases=1 yearly=res_kw_933_pu

New Load.load_p1ulv7706_1 conn=wye bus1=p1ulv7706.1 kV=0.12 Vminpu=0.8 Vmaxpu=1.2 model=1 kW=6.364846522849057 kvar=1.3017627460069672 Phases=1 yearly=res_kw_947_pu

New Load.load_p1ulv7706_2 conn=wye bus1=p1ulv7706.2 kV=0.12 Vminpu=0.8 Vmaxpu=1.2 model=1 kW=6.364846522849057 kvar=1.3017627460069672 Phases=1 yearly=res_kw_947_pu

New Load.load_p1ulv7707_1 conn=wye bus1=p1ulv7707.1 kV=0.12 Vminpu=0.8 Vmaxpu=1.2 model=1 kW=6.168408370727534 kvar=1.492740670010399 Phases=1 yearly=res_kw_1162_pu

New Load.load_p1ulv7707_2 conn=wye bus1=p1ulv7707.2 kV=0.12 Vminpu=0.8 Vmaxpu=1.2 model=1 kW=6.168408370727534 kvar=1.492740670010399 Phases=1 yearly=res_kw_1162_pu

New Load.load_p1ulv7708_1 conn=wye bus1=p1ulv7708.1 kV=0.12 Vminpu=0.8 Vmaxpu=1.2 model=1 kW=5.5396149838334106 kvar=1.3495096504699533 Phases=1 yearly=res_kw_1273_pu

New Load.load_p1ulv7708_2 conn=wye bus1=p1ulv7708.2 kV=0.12 Vminpu=0.8 Vmaxpu=1.2 model=1 kW=5.5396149838334106 kvar=1.3495096504699533 Phases=1 yearly=res_kw_1273_pu

New Load.load_p1ulv7709_1 conn=wye bus1=p1ulv7709.1 kV=0.12 Vminpu=0.8 Vmaxpu=1.2 model=1 kW=6.224817813202313 kvar=1.7553010009693135 Phases=1 yearly=res_kw_710_pu

New Load.load_p1ulv7709_2 conn=wye bus1=p1ulv7709.2 kV=0.12 Vminpu=0.8 Vmaxpu=1.2 model=1 kW=6.224817813202313 kvar=1.7553010009693135 Phases=1 yearly=res_kw_710_pu

New Load.load_p1ulv7710_1 conn=wye bus1=p1ulv7710.1 kV=0.12 Vminpu=0.8 Vmaxpu=1.2 model=1 kW=4.238873609394845 kvar=1.180467105892809 Phases=1 yearly=res_kw_681_pu

New Load.load_p1ulv7710_2 conn=wye bus1=p1ulv7710.2 kV=0.12 Vminpu=0.8 Vmaxpu=1.2 model=1 kW=4.238873609394845 kvar=1.180467105892809 Phases=1 yearly=res_kw_681_pu

New Load.load_p1ulv7711_1 conn=wye bus1=p1ulv7711.1 kV=0.12 Vminpu=0.8 Vmaxpu=1.2 model=1 kW=11.457721527492426 kvar=1.3801854390555242 Phases=1 yearly=res_kw_861_pu

New Load.load_p1ulv7711_2 conn=wye bus1=p1ulv7711.2 kV=0.12 Vminpu=0.8 Vmaxpu=1.2 model=1 kW=11.457721527492426 kvar=1.3801854390555242 Phases=1 yearly=res_kw_861_pu

New Load.load_p1ulv7712_1 conn=wye bus1=p1ulv7712.1 kV=0.12 Vminpu=0.8 Vmaxpu=1.2 model=1 kW=1.8618983584330409 kvar=0.7337589993741062 Phases=1 yearly=res_kw_141_pu

New Load.load_p1ulv7712_2 conn=wye bus1=p1ulv7712.2 kV=0.12 Vminpu=0.8 Vmaxpu=1.2 model=1 kW=1.8618983584330409 kvar=0.7337589993741062 Phases=1 yearly=res_kw_141_pu

New Load.load_p1ulv7713_1 conn=wye bus1=p1ulv7713.1 kV=0.12 Vminpu=0.8 Vmaxpu=1.2 model=1 kW=5.723135606665604 kvar=1.5038194991101048 Phases=1 yearly=res_kw_1228_pu

New Load.load_p1ulv7713_2 conn=wye bus1=p1ulv7713.2 kV=0.12 Vminpu=0.8 Vmaxpu=1.2 model=1 kW=5.723135606665604 kvar=1.5038194991101048 Phases=1 yearly=res_kw_1228_pu

New Load.load_p1ulv7714_1 conn=wye bus1=p1ulv7714.1 kV=0.12 Vminpu=0.8 Vmaxpu=1.2 model=1 kW=2.8808589162778904 kvar=0.2835073949750637 Phases=1 yearly=res_kw_1036_pu

New Load.load_p1ulv7714_2 conn=wye bus1=p1ulv7714.2 kV=0.12 Vminpu=0.8 Vmaxpu=1.2 model=1 kW=2.8808589162778904 kvar=0.2835073949750637 Phases=1 yearly=res_kw_1036_pu

New Load.load_p1ulv7715_1 conn=wye bus1=p1ulv7715.1 kV=0.12 Vminpu=0.8 Vmaxpu=1.2 model=1 kW=3.8748715750127736 kvar=1.5614372175332516 Phases=1 yearly=res_kw_517_pu

New Load.load_p1ulv7715_2 conn=wye bus1=p1ulv7715.2 kV=0.12 Vminpu=0.8 Vmaxpu=1.2 model=1 kW=3.8748715750127736 kvar=1.5614372175332516 Phases=1 yearly=res_kw_517_pu

New Load.load_p1ulv8674 conn=wye bus1=p1ulv8674.1.2.3 kV=0.48 Vminpu=0.8 Vmaxpu=1.2 model=1 kW=58.06160203759636 kvar=10.731447878100742 Phases=3 yearly=res_kw_889_pu

New Load.load_p1ulv8675 conn=wye bus1=p1ulv8675.1.2.3 kV=0.48 Vminpu=0.8 Vmaxpu=1.2 model=1 kW=43.73505631398508 kvar=5.0290236670440045 Phases=3 yearly=res_kw_598_pu

New Load.load_p1ulv8676 conn=wye bus1=p1ulv8676.1.2.3 kV=0.48 Vminpu=0.8 Vmaxpu=1.2 model=1 kW=27.31413429007533 kvar=2.0116721357119838 Phases=3 yearly=res_kw_123_pu

New Load.load_p1ulv8677 conn=wye bus1=p1ulv8677.1.2.3 kV=0.48 Vminpu=0.8 Vmaxpu=1.2 model=1 kW=43.73505631398508 kvar=5.0290236670440045 Phases=3 yearly=res_kw_598_pu

New Load.load_p1ulv8678 conn=wye bus1=p1ulv8678.1.2.3 kV=0.48 Vminpu=0.8 Vmaxpu=1.2 model=1 kW=27.31413429007533 kvar=2.0116721357119838 Phases=3 yearly=res_kw_123_pu

New Load.load_p1ulv8679 conn=wye bus1=p1ulv8679.1.2.3 kV=0.48 Vminpu=0.8 Vmaxpu=1.2 model=1 kW=43.73505631398508 kvar=5.0290236670440045 Phases=3 yearly=res_kw_598_pu

New Load.load_p1ulv8680 conn=wye bus1=p1ulv8680.1.2.3 kV=0.48 Vminpu=0.8 Vmaxpu=1.2 model=1 kW=43.73505631398508 kvar=5.0290236670440045 Phases=3 yearly=res_kw_598_pu

New Load.load_p1ulv8681 conn=wye bus1=p1ulv8681.1.2.3 kV=0.48 Vminpu=0.8 Vmaxpu=1.2 model=1 kW=27.61476157041208 kvar=2.053452334937639 Phases=3 yearly=res_kw_1089_pu

New Load.load_p1ulv8682 conn=wye bus1=p1ulv8682.1.2.3 kV=0.48 Vminpu=0.8 Vmaxpu=1.2 model=1 kW=59.72846886319797 kvar=12.07608368967826 Phases=3 yearly=res_kw_217_pu

New Load.load_p1ulv8683_1 conn=wye bus1=p1ulv8683.1 kV=0.12 Vminpu=0.8 Vmaxpu=1.2 model=1 kW=6.2419949477893475 kvar=3.2518916743102033 Phases=1 yearly=res_kw_748_pu

New Load.load_p1ulv8683_2 conn=wye bus1=p1ulv8683.2 kV=0.12 Vminpu=0.8 Vmaxpu=1.2 model=1 kW=6.2419949477893475 kvar=3.2518916743102033 Phases=1 yearly=res_kw_748_pu

New Load.load_p1ulv8684_1 conn=wye bus1=p1ulv8684.1 kV=0.12 Vminpu=0.8 Vmaxpu=1.2 model=1 kW=6.2419949477893475 kvar=3.2518916743102033 Phases=1 yearly=res_kw_748_pu

New Load.load_p1ulv8684_2 conn=wye bus1=p1ulv8684.2 kV=0.12 Vminpu=0.8 Vmaxpu=1.2 model=1 kW=6.2419949477893475 kvar=3.2518916743102033 Phases=1 yearly=res_kw_748_pu

New Load.load_p1ulv8685_1 conn=wye bus1=p1ulv8685.1 kV=0.12 Vminpu=0.8 Vmaxpu=1.2 model=1 kW=13.098094558867626 kvar=1.9465584989288183 Phases=1 yearly=res_kw_795_pu

New Load.load_p1ulv8685_2 conn=wye bus1=p1ulv8685.2 kV=0.12 Vminpu=0.8 Vmaxpu=1.2 model=1 kW=13.098094558867626 kvar=1.9465584989288183 Phases=1 yearly=res_kw_795_pu

New Load.load_p1ulv8686_1 conn=wye bus1=p1ulv8686.1 kV=0.12 Vminpu=0.8 Vmaxpu=1.2 model=1 kW=10.013968074528478 kvar=2.084226232597222 Phases=1 yearly=res_kw_1266_pu

New Load.load_p1ulv8686_2 conn=wye bus1=p1ulv8686.2 kV=0.12 Vminpu=0.8 Vmaxpu=1.2 model=1 kW=10.013968074528478 kvar=2.084226232597222 Phases=1 yearly=res_kw_1266_pu

New Load.load_p1ulv8687_1 conn=wye bus1=p1ulv8687.1 kV=0.12 Vminpu=0.8 Vmaxpu=1.2 model=1 kW=18.487291050551754 kvar=3.8726939013399893 Phases=1 yearly=res_kw_271_pu

New Load.load_p1ulv8687_2 conn=wye bus1=p1ulv8687.2 kV=0.12 Vminpu=0.8 Vmaxpu=1.2 model=1 kW=18.487291050551754 kvar=3.8726939013399893 Phases=1 yearly=res_kw_271_pu

New Load.load_p1ulv8688_1 conn=wye bus1=p1ulv8688.1 kV=0.12 Vminpu=0.8 Vmaxpu=1.2 model=1 kW=0.17638855280953816 kvar=0.11785766630597205 Phases=1 yearly=res_kw_1229_pu

New Load.load_p1ulv8688_2 conn=wye bus1=p1ulv8688.2 kV=0.12 Vminpu=0.8 Vmaxpu=1.2 model=1 kW=0.17638855280953816 kvar=0.11785766630597205 Phases=1 yearly=res_kw_1229_pu

New Load.load_p1ulv9094 conn=wye bus1=p1ulv9094.1.2.3 kV=0.48 Vminpu=0.8 Vmaxpu=1.2 model=1 kW=36.50723669611415 kvar=5.711557870450742 Phases=3 yearly=com_kw_14802_pu

New Load.load_p1ulv9095 conn=wye bus1=p1ulv9095.1.2.3 kV=0.48 Vminpu=0.8 Vmaxpu=1.2 model=1 kW=51.043034760958136 kvar=6.574105062207713 Phases=3 yearly=res_kw_606_pu

New Load.load_p1ulv9096_1 conn=wye bus1=p1ulv9096.1 kV=0.12 Vminpu=0.8 Vmaxpu=1.2 model=1 kW=6.727252203449795 kvar=1.9067277455995406 Phases=1 yearly=res_kw_822_pu

New Load.load_p1ulv9096_2 conn=wye bus1=p1ulv9096.2 kV=0.12 Vminpu=0.8 Vmaxpu=1.2 model=1 kW=6.727252203449795 kvar=1.9067277455995406 Phases=1 yearly=res_kw_822_pu

New Load.load_p1ulv9097_1 conn=wye bus1=p1ulv9097.1 kV=0.12 Vminpu=0.8 Vmaxpu=1.2 model=1 kW=5.436729579526792 kvar=1.2488470964899614 Phases=1 yearly=res_kw_454_pu

New Load.load_p1ulv9097_2 conn=wye bus1=p1ulv9097.2 kV=0.12 Vminpu=0.8 Vmaxpu=1.2 model=1 kW=5.436729579526792 kvar=1.2488470964899614 Phases=1 yearly=res_kw_454_pu

New Load.load_p1ulv9098_1 conn=wye bus1=p1ulv9098.1 kV=0.12 Vminpu=0.8 Vmaxpu=1.2 model=1 kW=4.857616015471129 kvar=0.2397306111492685 Phases=1 yearly=com_kw_14883_pu

New Load.load_p1ulv9098_2 conn=wye bus1=p1ulv9098.2 kV=0.12 Vminpu=0.8 Vmaxpu=1.2 model=1 kW=4.857616015471129 kvar=0.2397306111492685 Phases=1 yearly=com_kw_14883_pu

New Load.load_p1ulv9099_1 conn=wye bus1=p1ulv9099.1 kV=0.12 Vminpu=0.8 Vmaxpu=1.2 model=1 kW=5.436729579526792 kvar=1.2488470964899614 Phases=1 yearly=res_kw_454_pu

New Load.load_p1ulv9099_2 conn=wye bus1=p1ulv9099.2 kV=0.12 Vminpu=0.8 Vmaxpu=1.2 model=1 kW=5.436729579526792 kvar=1.2488470964899614 Phases=1 yearly=res_kw_454_pu

New Load.load_p1ulv9100_1 conn=wye bus1=p1ulv9100.1 kV=0.12 Vminpu=0.8 Vmaxpu=1.2 model=1 kW=6.139488924452324 kvar=1.0282575631325632 Phases=1 yearly=res_kw_421_pu

New Load.load_p1ulv9100_2 conn=wye bus1=p1ulv9100.2 kV=0.12 Vminpu=0.8 Vmaxpu=1.2 model=1 kW=6.139488924452324 kvar=1.0282575631325632 Phases=1 yearly=res_kw_421_pu

New Load.load_p1ulv9101_1 conn=wye bus1=p1ulv9101.1 kV=0.12 Vminpu=0.8 Vmaxpu=1.2 model=1 kW=8.002510293265328 kvar=1.3147667835887125 Phases=1 yearly=res_kw_932_pu

New Load.load_p1ulv9101_2 conn=wye bus1=p1ulv9101.2 kV=0.12 Vminpu=0.8 Vmaxpu=1.2 model=1 kW=8.002510293265328 kvar=1.3147667835887125 Phases=1 yearly=res_kw_932_pu

New Load.load_p1ulv9102_1 conn=wye bus1=p1ulv9102.1 kV=0.12 Vminpu=0.8 Vmaxpu=1.2 model=1 kW=3.469755020859998 kvar=0.8941520384931253 Phases=1 yearly=res_kw_4_pu

New Load.load_p1ulv9102_2 conn=wye bus1=p1ulv9102.2 kV=0.12 Vminpu=0.8 Vmaxpu=1.2 model=1 kW=3.469755020859998 kvar=0.8941520384931253 Phases=1 yearly=res_kw_4_pu

New Load.load_p1ulv9103_1 conn=wye bus1=p1ulv9103.1 kV=0.12 Vminpu=0.8 Vmaxpu=1.2 model=1 kW=5.532217394380081 kvar=0.19764958226935989 Phases=1 yearly=res_kw_88_pu

New Load.load_p1ulv9103_2 conn=wye bus1=p1ulv9103.2 kV=0.12 Vminpu=0.8 Vmaxpu=1.2 model=1 kW=5.532217394380081 kvar=0.19764958226935989 Phases=1 yearly=res_kw_88_pu

New Load.load_p1ulv9104_1 conn=wye bus1=p1ulv9104.1 kV=0.12 Vminpu=0.8 Vmaxpu=1.2 model=1 kW=10.375628907780863 kvar=4.616486224330442 Phases=1 yearly=res_kw_1267_pu

New Load.load_p1ulv9104_2 conn=wye bus1=p1ulv9104.2 kV=0.12 Vminpu=0.8 Vmaxpu=1.2 model=1 kW=10.375628907780863 kvar=4.616486224330442 Phases=1 yearly=res_kw_1267_pu

New Load.load_p1ulv9105_1 conn=wye bus1=p1ulv9105.1 kV=0.12 Vminpu=0.8 Vmaxpu=1.2 model=1 kW=4.792624300749482 kvar=1.1139407265067676 Phases=1 yearly=res_kw_898_pu

New Load.load_p1ulv9105_2 conn=wye bus1=p1ulv9105.2 kV=0.12 Vminpu=0.8 Vmaxpu=1.2 model=1 kW=4.792624300749482 kvar=1.1139407265067676 Phases=1 yearly=res_kw_898_pu

New Load.load_p1ulv9106_1 conn=wye bus1=p1ulv9106.1 kV=0.12 Vminpu=0.8 Vmaxpu=1.2 model=1 kW=8.252260942121131 kvar=1.0100409923226146 Phases=1 yearly=res_kw_401_pu

New Load.load_p1ulv9106_2 conn=wye bus1=p1ulv9106.2 kV=0.12 Vminpu=0.8 Vmaxpu=1.2 model=1 kW=8.252260942121131 kvar=1.0100409923226146 Phases=1 yearly=res_kw_401_pu

New Load.load_p1ulv9107_1 conn=wye bus1=p1ulv9107.1 kV=0.12 Vminpu=0.8 Vmaxpu=1.2 model=1 kW=6.727252203449795 kvar=1.9067277455995406 Phases=1 yearly=res_kw_822_pu

New Load.load_p1ulv9107_2 conn=wye bus1=p1ulv9107.2 kV=0.12 Vminpu=0.8 Vmaxpu=1.2 model=1 kW=6.727252203449795 kvar=1.9067277455995406 Phases=1 yearly=res_kw_822_pu

New Load.load_p1ulv9108_1 conn=wye bus1=p1ulv9108.1 kV=0.12 Vminpu=0.8 Vmaxpu=1.2 model=1 kW=3.8029744718879392 kvar=1.1462670306842289 Phases=1 yearly=res_kw_263_pu

New Load.load_p1ulv9108_2 conn=wye bus1=p1ulv9108.2 kV=0.12 Vminpu=0.8 Vmaxpu=1.2 model=1 kW=3.8029744718879392 kvar=1.1462670306842289 Phases=1 yearly=res_kw_263_pu

New Load.load_p1ulv9109_1 conn=wye bus1=p1ulv9109.1 kV=0.12 Vminpu=0.8 Vmaxpu=1.2 model=1 kW=5.286987923172412 kvar=0.912918656895422 Phases=1 yearly=res_kw_75_pu

New Load.load_p1ulv9109_2 conn=wye bus1=p1ulv9109.2 kV=0.12 Vminpu=0.8 Vmaxpu=1.2 model=1 kW=5.286987923172412 kvar=0.912918656895422 Phases=1 yearly=res_kw_75_pu

New Load.load_p1ulv9110_1 conn=wye bus1=p1ulv9110.1 kV=0.12 Vminpu=0.8 Vmaxpu=1.2 model=1 kW=7.7578735794910925 kvar=1.9049941012910125 Phases=1 yearly=res_kw_863_pu

New Load.load_p1ulv9110_2 conn=wye bus1=p1ulv9110.2 kV=0.12 Vminpu=0.8 Vmaxpu=1.2 model=1 kW=7.7578735794910925 kvar=1.9049941012910125 Phases=1 yearly=res_kw_863_pu

New Load.load_p1ulv9111_1 conn=wye bus1=p1ulv9111.1 kV=0.12 Vminpu=0.8 Vmaxpu=1.2 model=1 kW=2.9898249364160714 kvar=0.2983164502279761 Phases=1 yearly=res_kw_1070_pu

New Load.load_p1ulv9111_2 conn=wye bus1=p1ulv9111.2 kV=0.12 Vminpu=0.8 Vmaxpu=1.2 model=1 kW=2.9898249364160714 kvar=0.2983164502279761 Phases=1 yearly=res_kw_1070_pu

New Load.load_p1ulv9112_1 conn=wye bus1=p1ulv9112.1 kV=0.12 Vminpu=0.8 Vmaxpu=1.2 model=1 kW=3.8748715750127736 kvar=1.5614372175332516 Phases=1 yearly=res_kw_517_pu

New Load.load_p1ulv9112_2 conn=wye bus1=p1ulv9112.2 kV=0.12 Vminpu=0.8 Vmaxpu=1.2 model=1 kW=3.8748715750127736 kvar=1.5614372175332516 Phases=1 yearly=res_kw_517_pu

New Load.load_p1ulv9113_1 conn=wye bus1=p1ulv9113.1 kV=0.12 Vminpu=0.8 Vmaxpu=1.2 model=1 kW=2.8808589162778904 kvar=0.2835073949750637 Phases=1 yearly=res_kw_1036_pu

New Load.load_p1ulv9113_2 conn=wye bus1=p1ulv9113.2 kV=0.12 Vminpu=0.8 Vmaxpu=1.2 model=1 kW=2.8808589162778904 kvar=0.2835073949750637 Phases=1 yearly=res_kw_1036_pu

New Load.load_p1ulv9114_1 conn=wye bus1=p1ulv9114.1 kV=0.12 Vminpu=0.8 Vmaxpu=1.2 model=1 kW=5.991566549041883 kvar=1.4552695367795996 Phases=1 yearly=res_kw_1283_pu

New Load.load_p1ulv9114_2 conn=wye bus1=p1ulv9114.2 kV=0.12 Vminpu=0.8 Vmaxpu=1.2 model=1 kW=5.991566549041883 kvar=1.4552695367795996 Phases=1 yearly=res_kw_1283_pu

New Load.load_p1ulv9115_1 conn=wye bus1=p1ulv9115.1 kV=0.12 Vminpu=0.8 Vmaxpu=1.2 model=1 kW=4.708977442537992 kvar=0.5396715316626463 Phases=1 yearly=res_kw_1138_pu

New Load.load_p1ulv9115_2 conn=wye bus1=p1ulv9115.2 kV=0.12 Vminpu=0.8 Vmaxpu=1.2 model=1 kW=4.708977442537992 kvar=0.5396715316626463 Phases=1 yearly=res_kw_1138_pu

New Load.load_p1ulv9116_1 conn=wye bus1=p1ulv9116.1 kV=0.12 Vminpu=0.8 Vmaxpu=1.2 model=1 kW=7.088530083600876 kvar=2.6134476319600712 Phases=1 yearly=res_kw_267_pu

New Load.load_p1ulv9116_2 conn=wye bus1=p1ulv9116.2 kV=0.12 Vminpu=0.8 Vmaxpu=1.2 model=1 kW=7.088530083600876 kvar=2.6134476319600712 Phases=1 yearly=res_kw_267_pu

New Load.load_p1ulv9117_1 conn=wye bus1=p1ulv9117.1 kV=0.12 Vminpu=0.8 Vmaxpu=1.2 model=1 kW=6.139488924452324 kvar=1.0282575631325632 Phases=1 yearly=res_kw_421_pu

New Load.load_p1ulv9117_2 conn=wye bus1=p1ulv9117.2 kV=0.12 Vminpu=0.8 Vmaxpu=1.2 model=1 kW=6.139488924452324 kvar=1.0282575631325632 Phases=1 yearly=res_kw_421_pu

New Load.load_p1ulv11303 conn=wye bus1=p1ulv11303.1.2.3 kV=0.48 Vminpu=0.8 Vmaxpu=1.2 model=1 kW=43.73505631398508 kvar=5.0290236670440045 Phases=3 yearly=res_kw_598_pu

New Load.load_p1ulv11305 conn=wye bus1=p1ulv11305.1.2.3 kV=0.48 Vminpu=0.8 Vmaxpu=1.2 model=1 kW=44.57223874867487 kvar=8.355338351749891 Phases=3 yearly=res_kw_1277_pu

New Load.load_p1ulv11310 conn=wye bus1=p1ulv11310.1.2.3 kV=0.48 Vminpu=0.8 Vmaxpu=1.2 model=1 kW=31.56390894948716 kvar=5.59016195527881 Phases=3 yearly=res_kw_76_pu

New Load.load_p1ulv11318 conn=wye bus1=p1ulv11318.1.2.3 kV=0.48 Vminpu=0.8 Vmaxpu=1.2 model=1 kW=39.386431426010155 kvar=9.002515961767303 Phases=3 yearly=res_kw_617_pu

New Load.load_p1ulv11319 conn=wye bus1=p1ulv11319.1.2.3 kV=0.48 Vminpu=0.8 Vmaxpu=1.2 model=1 kW=31.56390894948716 kvar=5.59016195527881 Phases=3 yearly=res_kw_76_pu

New Load.load_p1ulv11438 conn=wye bus1=p1ulv11438.1.2.3 kV=0.48 Vminpu=0.8 Vmaxpu=1.2 model=1 kW=41.27726434904335 kvar=10.826959957077602 Phases=3 yearly=com_kw_13682_pu

New Load.load_p1ulv11439 conn=wye bus1=p1ulv11439.1.2.3 kV=0.48 Vminpu=0.8 Vmaxpu=1.2 model=1 kW=30.92475854795336 kvar=9.075307581985562 Phases=3 yearly=com_kw_14507_pu

New Load.load_p1ulv11440 conn=wye bus1=p1ulv11440.1.2.3 kV=0.48 Vminpu=0.8 Vmaxpu=1.2 model=1 kW=43.69867821620363 kvar=6.177113536060882 Phases=3 yearly=com_kw_13196_pu

New Load.load_p1ulv11441 conn=wye bus1=p1ulv11441.1.2.3 kV=0.48 Vminpu=0.8 Vmaxpu=1.2 model=1 kW=68.58329204374485 kvar=18.492805981603 Phases=3 yearly=com_kw_15076_pu

New Load.load_p1ulv11442 conn=wye bus1=p1ulv11442.1.2.3 kV=0.48 Vminpu=0.8 Vmaxpu=1.2 model=1 kW=39.0072223129537 kvar=9.746263475181971 Phases=3 yearly=com_kw_14919_pu

New Load.load_p1ulv11443_1 conn=wye bus1=p1ulv11443.1 kV=0.12 Vminpu=0.8 Vmaxpu=1.2 model=1 kW=4.857616015471129 kvar=0.2397306111492685 Phases=1 yearly=com_kw_14883_pu

New Load.load_p1ulv11443_2 conn=wye bus1=p1ulv11443.2 kV=0.12 Vminpu=0.8 Vmaxpu=1.2 model=1 kW=4.857616015471129 kvar=0.2397306111492685 Phases=1 yearly=com_kw_14883_pu

New Load.load_p1ulv11493_1 conn=wye bus1=p1ulv11493.1 kV=0.12 Vminpu=0.8 Vmaxpu=1.2 model=1 kW=5.574986239386177 kvar=0.24270326316758836 Phases=1 yearly=com_kw_13291_pu

New Load.load_p1ulv11493_2 conn=wye bus1=p1ulv11493.2 kV=0.12 Vminpu=0.8 Vmaxpu=1.2 model=1 kW=5.574986239386177 kvar=0.24270326316758836 Phases=1 yearly=com_kw_13291_pu

New Load.load_p1ulv11494_1 conn=wye bus1=p1ulv11494.1 kV=0.12 Vminpu=0.8 Vmaxpu=1.2 model=1 kW=3.8748715750127736 kvar=1.5614372175332516 Phases=1 yearly=res_kw_517_pu

New Load.load_p1ulv11494_2 conn=wye bus1=p1ulv11494.2 kV=0.12 Vminpu=0.8 Vmaxpu=1.2 model=1 kW=3.8748715750127736 kvar=1.5614372175332516 Phases=1 yearly=res_kw_517_pu

New Load.load_p1ulv11496_1 conn=wye bus1=p1ulv11496.1 kV=0.12 Vminpu=0.8 Vmaxpu=1.2 model=1 kW=5.991917116566147 kvar=1.6692124001399427 Phases=1 yearly=res_kw_314_pu

New Load.load_p1ulv11496_2 conn=wye bus1=p1ulv11496.2 kV=0.12 Vminpu=0.8 Vmaxpu=1.2 model=1 kW=5.991917116566147 kvar=1.6692124001399427 Phases=1 yearly=res_kw_314_pu

New Load.load_p1ulv11497_1 conn=wye bus1=p1ulv11497.1 kV=0.12 Vminpu=0.8 Vmaxpu=1.2 model=1 kW=3.3022463090013963 kvar=0.3558858552969609 Phases=1 yearly=res_kw_236_pu

New Load.load_p1ulv11497_2 conn=wye bus1=p1ulv11497.2 kV=0.12 Vminpu=0.8 Vmaxpu=1.2 model=1 kW=3.3022463090013963 kvar=0.3558858552969609 Phases=1 yearly=res_kw_236_pu

New Load.load_p1ulv11498_1 conn=wye bus1=p1ulv11498.1 kV=0.12 Vminpu=0.8 Vmaxpu=1.2 model=1 kW=1.8636614682402992 kvar=0.5015179682387616 Phases=1 yearly=res_kw_532_pu

New Load.load_p1ulv11498_2 conn=wye bus1=p1ulv11498.2 kV=0.12 Vminpu=0.8 Vmaxpu=1.2 model=1 kW=1.8636614682402992 kvar=0.5015179682387616 Phases=1 yearly=res_kw_532_pu

New Load.load_p1ulv12391_1 conn=wye bus1=p1ulv12391.1 kV=0.12 Vminpu=0.8 Vmaxpu=1.2 model=1 kW=5.851131552538107 kvar=1.44338115693729 Phases=1 yearly=res_kw_317_pu

New Load.load_p1ulv12391_2 conn=wye bus1=p1ulv12391.2 kV=0.12 Vminpu=0.8 Vmaxpu=1.2 model=1 kW=5.851131552538107 kvar=1.44338115693729 Phases=1 yearly=res_kw_317_pu

New Load.load_p1ulv12392_1 conn=wye bus1=p1ulv12392.1 kV=0.12 Vminpu=0.8 Vmaxpu=1.2 model=1 kW=3.7358442183619687 kvar=0.8837352156355889 Phases=1 yearly=res_kw_522_pu

New Load.load_p1ulv12392_2 conn=wye bus1=p1ulv12392.2 kV=0.12 Vminpu=0.8 Vmaxpu=1.2 model=1 kW=3.7358442183619687 kvar=0.8837352156355889 Phases=1 yearly=res_kw_522_pu

New Load.load_p1ulv12393_1 conn=wye bus1=p1ulv12393.1 kV=0.12 Vminpu=0.8 Vmaxpu=1.2 model=1 kW=2.605021030189827 kvar=1.0007509371876184 Phases=1 yearly=res_kw_24_pu

New Load.load_p1ulv12393_2 conn=wye bus1=p1ulv12393.2 kV=0.12 Vminpu=0.8 Vmaxpu=1.2 model=1 kW=2.605021030189827 kvar=1.0007509371876184 Phases=1 yearly=res_kw_24_pu

New Load.load_p1ulv12394_1 conn=wye bus1=p1ulv12394.1 kV=0.12 Vminpu=0.8 Vmaxpu=1.2 model=1 kW=2.6241521841182514 kvar=0.8429304779950015 Phases=1 yearly=res_kw_33_pu

New Load.load_p1ulv12394_2 conn=wye bus1=p1ulv12394.2 kV=0.12 Vminpu=0.8 Vmaxpu=1.2 model=1 kW=2.6241521841182514 kvar=0.8429304779950015 Phases=1 yearly=res_kw_33_pu

New Load.load_p1ulv12395_1 conn=wye bus1=p1ulv12395.1 kV=0.12 Vminpu=0.8 Vmaxpu=1.2 model=1 kW=3.469521951913567 kvar=0.9490620687569232 Phases=1 yearly=res_kw_825_pu

New Load.load_p1ulv12395_2 conn=wye bus1=p1ulv12395.2 kV=0.12 Vminpu=0.8 Vmaxpu=1.2 model=1 kW=3.469521951913567 kvar=0.9490620687569232 Phases=1 yearly=res_kw_825_pu

New Load.load_p1ulv12396_1 conn=wye bus1=p1ulv12396.1 kV=0.12 Vminpu=0.8 Vmaxpu=1.2 model=1 kW=2.6241521841182514 kvar=0.8429304779950015 Phases=1 yearly=res_kw_33_pu
