New Load.load_p1ulv674 conn=wye bus1=p1ulv674.1.2.3 kV=0.48 Vminpu=0.8 Vmaxpu=1.2 model=1 kW=139.8917722207126 kvar=6.109246877535022 Phases=3 yearly=com_kw_14536_pu

New Load.load_p1ulv675 conn=wye bus1=p1ulv675.1.2.3 kV=0.48 Vminpu=0.8 Vmaxpu=1.2 model=1 kW=51.99338843351495 kvar=2.319560551526166 Phases=3 yearly=com_kw_14574_pu

New Load.load_p1ulv4251_1 conn=wye bus1=p1ulv4251.1 kV=0.12 Vminpu=0.8 Vmaxpu=1.2 model=1 kW=5.121080771859233 kvar=1.1807848049623457 Phases=1 yearly=res_kw_691_pu

New Load.load_p1ulv4251_2 conn=wye bus1=p1ulv4251.2 kV=0.12 Vminpu=0.8 Vmaxpu=1.2 model=1 kW=5.121080771859233 kvar=1.1807848049623457 Phases=1 yearly=res_kw_691_pu

New Load.load_p1ulv4252_1 conn=wye bus1=p1ulv4252.1 kV=0.12 Vminpu=0.8 Vmaxpu=1.2 model=1 kW=4.80777430622987 kvar=1.4183053271274066 Phases=1 yearly=res_kw_1023_pu

New Load.load_p1ulv4252_2 conn=wye bus1=p1ulv4252.2 kV=0.12 Vminpu=0.8 Vmaxpu=1.2 model=1 kW=4.80777430622987 kvar=1.4183053271274066 Phases=1 yearly=res_kw_1023_pu

New Load.load_p1ulv4253_1 conn=wye bus1=p1ulv4253.1 kV=0.12 Vminpu=0.8 Vmaxpu=1.2 model=1 kW=9.341738473663403 kvar=2.018548151169967 Phases=1 yearly=res_kw_504_pu

New Load.load_p1ulv4253_2 conn=wye bus1=p1ulv4253.2 kV=0.12 Vminpu=0.8 Vmaxpu=1.2 model=1 kW=9.341738473663403 kvar=2.018548151169967 Phases=1 yearly=res_kw_504_pu

New Load.load_p1ulv4254_1 conn=wye bus1=p1ulv4254.1 kV=0.12 Vminpu=0.8 Vmaxpu=1.2 model=1 kW=3.789884331965197 kvar=1.0036576715582408 Phases=1 yearly=res_kw_670_pu

New Load.load_p1ulv4254_2 conn=wye bus1=p1ulv4254.2 kV=0.12 Vminpu=0.8 Vmaxpu=1.2 model=1 kW=3.789884331965197 kvar=1.0036576715582408 Phases=1 yearly=res_kw_670_pu

New Load.load_p1ulv4255_1 conn=wye bus1=p1ulv4255.1 kV=0.12 Vminpu=0.8 Vmaxpu=1.2 model=1 kW=2.9898249364160714 kvar=0.2983164502279761 Phases=1 yearly=res_kw_1070_pu

New Load.load_p1ulv4255_2 conn=wye bus1=p1ulv4255.2 kV=0.12 Vminpu=0.8 Vmaxpu=1.2 model=1 kW=2.9898249364160714 kvar=0.2983164502279761 Phases=1 yearly=res_kw_1070_pu

New Load.load_p1ulv4256_1 conn=wye bus1=p1ulv4256.1 kV=0.12 Vminpu=0.8 Vmaxpu=1.2 model=1 kW=2.1894046505184286 kvar=0.7281040757251952 Phases=1 yearly=res_kw_1042_pu

New Load.load_p1ulv4256_2 conn=wye bus1=p1ulv4256.2 kV=0.12 Vminpu=0.8 Vmaxpu=1.2 model=1 kW=2.1894046505184286 kvar=0.7281040757251952 Phases=1 yearly=res_kw_1042_pu

New Load.load_p1ulv4260_1 conn=wye bus1=p1ulv4260.1 kV=0.12 Vminpu=0.8 Vmaxpu=1.2 model=1 kW=2.623267981089487 kvar=1.212519304398851 Phases=1 yearly=res_kw_452_pu

New Load.load_p1ulv4260_2 conn=wye bus1=p1ulv4260.2 kV=0.12 Vminpu=0.8 Vmaxpu=1.2 model=1 kW=2.623267981089487 kvar=1.212519304398851 Phases=1 yearly=res_kw_452_pu

New Load.load_p1ulv4262_1 conn=wye bus1=p1ulv4262.1 kV=0.12 Vminpu=0.8 Vmaxpu=1.2 model=1 kW=9.341738473663403 kvar=2.018548151169967 Phases=1 yearly=res_kw_504_pu

New Load.load_p1ulv4262_2 conn=wye bus1=p1ulv4262.2 kV=0.12 Vminpu=0.8 Vmaxpu=1.2 model=1 kW=9.341738473663403 kvar=2.018548151169967 Phases=1 yearly=res_kw_504_pu

New Load.load_p1ulv4264_1 conn=wye bus1=p1ulv4264.1 kV=0.12 Vminpu=0.8 Vmaxpu=1.2 model=1 kW=2.6241521841182514 kvar=0.8429304779950015 Phases=1 yearly=res_kw_33_pu

New Load.load_p1ulv4264_2 conn=wye bus1=p1ulv4264.2 kV=0.12 Vminpu=0.8 Vmaxpu=1.2 model=1 kW=2.6241521841182514 kvar=0.8429304779950015 Phases=1 yearly=res_kw_33_pu

New Load.load_p1ulv4266_1 conn=wye bus1=p1ulv4266.1 kV=0.12 Vminpu=0.8 Vmaxpu=1.2 model=1 kW=3.4468581914223817 kvar=1.1411197390818253 Phases=1 yearly=res_kw_250_pu

New Load.load_p1ulv4266_2 conn=wye bus1=p1ulv4266.2 kV=0.12 Vminpu=0.8 Vmaxpu=1.2 model=1 kW=3.4468581914223817 kvar=1.1411197390818253 Phases=1 yearly=res_kw_250_pu

New Load.load_p1ulv4268_1 conn=wye bus1=p1ulv4268.1 kV=0.12 Vminpu=0.8 Vmaxpu=1.2 model=1 kW=2.1724381950021665 kvar=0.9907382338000528 Phases=1 yearly=res_kw_292_pu

New Load.load_p1ulv4268_2 conn=wye bus1=p1ulv4268.2 kV=0.12 Vminpu=0.8 Vmaxpu=1.2 model=1 kW=2.1724381950021665 kvar=0.9907382338000528 Phases=1 yearly=res_kw_292_pu

New Load.load_p1ulv4273_1 conn=wye bus1=p1ulv4273.1 kV=0.12 Vminpu=0.8 Vmaxpu=1.2 model=1 kW=3.3641909207712115 kvar=0.9284266244461494 Phases=1 yearly=res_kw_523_pu

New Load.load_p1ulv4273_2 conn=wye bus1=p1ulv4273.2 kV=0.12 Vminpu=0.8 Vmaxpu=1.2 model=1 kW=3.3641909207712115 kvar=0.9284266244461494 Phases=1 yearly=res_kw_523_pu

New Load.load_p1ulv4276_1 conn=wye bus1=p1ulv4276.1 kV=0.12 Vminpu=0.8 Vmaxpu=1.2 model=1 kW=3.6844020253442458 kvar=1.4451491397155931 Phases=1 yearly=res_kw_1258_pu

New Load.load_p1ulv4276_2 conn=wye bus1=p1ulv4276.2 kV=0.12 Vminpu=0.8 Vmaxpu=1.2 model=1 kW=3.6844020253442458 kvar=1.4451491397155931 Phases=1 yearly=res_kw_1258_pu

New Load.load_p1ulv4283_1 conn=wye bus1=p1ulv4283.1 kV=0.12 Vminpu=0.8 Vmaxpu=1.2 model=1 kW=2.1724381950021665 kvar=0.9907382338000528 Phases=1 yearly=res_kw_292_pu

New Load.load_p1ulv4283_2 conn=wye bus1=p1ulv4283.2 kV=0.12 Vminpu=0.8 Vmaxpu=1.2 model=1 kW=2.1724381950021665 kvar=0.9907382338000528 Phases=1 yearly=res_kw_292_pu

New Load.load_p1ulv4286_1 conn=wye bus1=p1ulv4286.1 kV=0.12 Vminpu=0.8 Vmaxpu=1.2 model=1 kW=4.78815623948431 kvar=1.2110296754961107 Phases=1 yearly=res_kw_842_pu

New Load.load_p1ulv4286_2 conn=wye bus1=p1ulv4286.2 kV=0.12 Vminpu=0.8 Vmaxpu=1.2 model=1 kW=4.78815623948431 kvar=1.2110296754961107 Phases=1 yearly=res_kw_842_pu

New Load.load_p1ulv4294_1 conn=wye bus1=p1ulv4294.1 kV=0.12 Vminpu=0.8 Vmaxpu=1.2 model=1 kW=5.436729579526792 kvar=1.2488470964899614 Phases=1 yearly=res_kw_454_pu

New Load.load_p1ulv4294_2 conn=wye bus1=p1ulv4294.2 kV=0.12 Vminpu=0.8 Vmaxpu=1.2 model=1 kW=5.436729579526792 kvar=1.2488470964899614 Phases=1 yearly=res_kw_454_pu

New Load.load_p1ulv4296_1 conn=wye bus1=p1ulv4296.1 kV=0.12 Vminpu=0.8 Vmaxpu=1.2 model=1 kW=2.47170658682663 kvar=0.5373197382437959 Phases=1 yearly=res_kw_39_pu

New Load.load_p1ulv4296_2 conn=wye bus1=p1ulv4296.2 kV=0.12 Vminpu=0.8 Vmaxpu=1.2 model=1 kW=2.47170658682663 kvar=0.5373197382437959 Phases=1 yearly=res_kw_39_pu

New Load.load_p1ulv4297_1 conn=wye bus1=p1ulv4297.1 kV=0.12 Vminpu=0.8 Vmaxpu=1.2 model=1 kW=3.8748715750127736 kvar=1.5614372175332516 Phases=1 yearly=res_kw_517_pu

New Load.load_p1ulv4297_2 conn=wye bus1=p1ulv4297.2 kV=0.12 Vminpu=0.8 Vmaxpu=1.2 model=1 kW=3.8748715750127736 kvar=1.5614372175332516 Phases=1 yearly=res_kw_517_pu

New Load.load_p1ulv4299_1 conn=wye bus1=p1ulv4299.1 kV=0.12 Vminpu=0.8 Vmaxpu=1.2 model=1 kW=4.78815623948431 kvar=1.2110296754961107 Phases=1 yearly=res_kw_842_pu

New Load.load_p1ulv4299_2 conn=wye bus1=p1ulv4299.2 kV=0.12 Vminpu=0.8 Vmaxpu=1.2 model=1 kW=4.78815623948431 kvar=1.2110296754961107 Phases=1 yearly=res_kw_842_pu

New Load.load_p1ulv4673_1 conn=wye bus1=p1ulv4673.1 kV=0.12 Vminpu=0.8 Vmaxpu=1.2 model=1 kW=3.0502193323758338 kvar=0.7068547525403183 Phases=1 yearly=res_kw_407_pu

New Load.load_p1ulv4673_2 conn=wye bus1=p1ulv4673.2 kV=0.12 Vminpu=0.8 Vmaxpu=1.2 model=1 kW=3.0502193323758338 kvar=0.7068547525403183 Phases=1 yearly=res_kw_407_pu

New Load.load_p1ulv4677_1 conn=wye bus1=p1ulv4677.1 kV=0.12 Vminpu=0.8 Vmaxpu=1.2 model=1 kW=6.139488924452324 kvar=1.0282575631325632 Phases=1 yearly=res_kw_421_pu

New Load.load_p1ulv4677_2 conn=wye bus1=p1ulv4677.2 kV=0.12 Vminpu=0.8 Vmaxpu=1.2 model=1 kW=6.139488924452324 kvar=1.0282575631325632 Phases=1 yearly=res_kw_421_pu

New Load.load_p1ulv4680_1 conn=wye bus1=p1ulv4680.1 kV=0.12 Vminpu=0.8 Vmaxpu=1.2 model=1 kW=14.404204781856079 kvar=3.036808033672637 Phases=1 yearly=res_kw_560_pu

New Load.load_p1ulv4680_2 conn=wye bus1=p1ulv4680.2 kV=0.12 Vminpu=0.8 Vmaxpu=1.2 model=1 kW=14.404204781856079 kvar=3.036808033672637 Phases=1 yearly=res_kw_560_pu

New Load.load_p1ulv4681_1 conn=wye bus1=p1ulv4681.1 kV=0.12 Vminpu=0.8 Vmaxpu=1.2 model=1 kW=5.436729579526792 kvar=1.2488470964899614 Phases=1 yearly=res_kw_454_pu

New Load.load_p1ulv4681_2 conn=wye bus1=p1ulv4681.2 kV=0.12 Vminpu=0.8 Vmaxpu=1.2 model=1 kW=5.436729579526792 kvar=1.2488470964899614 Phases=1 yearly=res_kw_454_pu

New Load.load_p1ulv4686_1 conn=wye bus1=p1ulv4686.1 kV=0.12 Vminpu=0.8 Vmaxpu=1.2 model=1 kW=9.666699253995569 kvar=2.090221480167897 Phases=1 yearly=res_kw_46_pu

New Load.load_p1ulv4686_2 conn=wye bus1=p1ulv4686.2 kV=0.12 Vminpu=0.8 Vmaxpu=1.2 model=1 kW=9.666699253995569 kvar=2.090221480167897 Phases=1 yearly=res_kw_46_pu

New Load.load_p1ulv4687_1 conn=wye bus1=p1ulv4687.1 kV=0.12 Vminpu=0.8 Vmaxpu=1.2 model=1 kW=5.436729579526792 kvar=1.2488470964899614 Phases=1 yearly=res_kw_454_pu

New Load.load_p1ulv4687_2 conn=wye bus1=p1ulv4687.2 kV=0.12 Vminpu=0.8 Vmaxpu=1.2 model=1 kW=5.436729579526792 kvar=1.2488470964899614 Phases=1 yearly=res_kw_454_pu

New Load.load_p1ulv4689_1 conn=wye bus1=p1ulv4689.1 kV=0.12 Vminpu=0.8 Vmaxpu=1.2 model=1 kW=2.8808589162778904 kvar=0.2835073949750637 Phases=1 yearly=res_kw_1036_pu

New Load.load_p1ulv4689_2 conn=wye bus1=p1ulv4689.2 kV=0.12 Vminpu=0.8 Vmaxpu=1.2 model=1 kW=2.8808589162778904 kvar=0.2835073949750637 Phases=1 yearly=res_kw_1036_pu

New Load.load_p1ulv4690_1 conn=wye bus1=p1ulv4690.1 kV=0.12 Vminpu=0.8 Vmaxpu=1.2 model=1 kW=9.666699253995569 kvar=2.090221480167897 Phases=1 yearly=res_kw_46_pu

New Load.load_p1ulv4690_2 conn=wye bus1=p1ulv4690.2 kV=0.12 Vminpu=0.8 Vmaxpu=1.2 model=1 kW=9.666699253995569 kvar=2.090221480167897 Phases=1 yearly=res_kw_46_pu

New Load.load_p1ulv4691_1 conn=wye bus1=p1ulv4691.1 kV=0.12 Vminpu=0.8 Vmaxpu=1.2 model=1 kW=2.40000228705824 kvar=1.0173787262529668 Phases=1 yearly=res_kw_1205_pu

New Load.load_p1ulv4691_2 conn=wye bus1=p1ulv4691.2 kV=0.12 Vminpu=0.8 Vmaxpu=1.2 model=1 kW=2.40000228705824 kvar=1.0173787262529668 Phases=1 yearly=res_kw_1205_pu

New Load.load_p1ulv4692_1 conn=wye bus1=p1ulv4692.1 kV=0.12 Vminpu=0.8 Vmaxpu=1.2 model=1 kW=5.436729579526792 kvar=1.2488470964899614 Phases=1 yearly=res_kw_454_pu

New Load.load_p1ulv4692_2 conn=wye bus1=p1ulv4692.2 kV=0.12 Vminpu=0.8 Vmaxpu=1.2 model=1 kW=5.436729579526792 kvar=1.2488470964899614 Phases=1 yearly=res_kw_454_pu

New Load.load_p1ulv4693_1 conn=wye bus1=p1ulv4693.1 kV=0.12 Vminpu=0.8 Vmaxpu=1.2 model=1 kW=2.916803644387601 kvar=0.11499518252231355 Phases=1 yearly=res_kw_1094_pu

New Load.load_p1ulv4693_2 conn=wye bus1=p1ulv4693.2 kV=0.12 Vminpu=0.8 Vmaxpu=1.2 model=1 kW=2.916803644387601 kvar=0.11499518252231355 Phases=1 yearly=res_kw_1094_pu

New Load.load_p1ulv4694_1 conn=wye bus1=p1ulv4694.1 kV=0.12 Vminpu=0.8 Vmaxpu=1.2 model=1 kW=5.436729579526792 kvar=1.2488470964899614 Phases=1 yearly=res_kw_454_pu

New Load.load_p1ulv4694_2 conn=wye bus1=p1ulv4694.2 kV=0.12 Vminpu=0.8 Vmaxpu=1.2 model=1 kW=5.436729579526792 kvar=1.2488470964899614 Phases=1 yearly=res_kw_454_pu

New Load.load_p1ulv4695_1 conn=wye bus1=p1ulv4695.1 kV=0.12 Vminpu=0.8 Vmaxpu=1.2 model=1 kW=3.629714039262861 kvar=1.2034402112399032 Phases=1 yearly=res_kw_203_pu

New Load.load_p1ulv4695_2 conn=wye bus1=p1ulv4695.2 kV=0.12 Vminpu=0.8 Vmaxpu=1.2 model=1 kW=3.629714039262861 kvar=1.2034402112399032 Phases=1 yearly=res_kw_203_pu

New Load.load_p1ulv4696_1 conn=wye bus1=p1ulv4696.1 kV=0.12 Vminpu=0.8 Vmaxpu=1.2 model=1 kW=8.020736002000627 kvar=0.8077597125403054 Phases=1 yearly=res_kw_411_pu

New Load.load_p1ulv4696_2 conn=wye bus1=p1ulv4696.2 kV=0.12 Vminpu=0.8 Vmaxpu=1.2 model=1 kW=8.020736002000627 kvar=0.8077597125403054 Phases=1 yearly=res_kw_411_pu

New Load.load_p1ulv4697_1 conn=wye bus1=p1ulv4697.1 kV=0.12 Vminpu=0.8 Vmaxpu=1.2 model=1 kW=5.436729579526792 kvar=1.2488470964899614 Phases=1 yearly=res_kw_454_pu

New Load.load_p1ulv4697_2 conn=wye bus1=p1ulv4697.2 kV=0.12 Vminpu=0.8 Vmaxpu=1.2 model=1 kW=5.436729579526792 kvar=1.2488470964899614 Phases=1 yearly=res_kw_454_pu

New Load.load_p1ulv4698_1 conn=wye bus1=p1ulv4698.1 kV=0.12 Vminpu=0.8 Vmaxpu=1.2 model=1 kW=2.40000228705824 kvar=1.0173787262529668 Phases=1 yearly=res_kw_1205_pu

New Load.load_p1ulv4698_2 conn=wye bus1=p1ulv4698.2 kV=0.12 Vminpu=0.8 Vmaxpu=1.2 model=1 kW=2.40000228705824 kvar=1.0173787262529668 Phases=1 yearly=res_kw_1205_pu

New Load.load_p1ulv4699_1 conn=wye bus1=p1ulv4699.1 kV=0.12 Vminpu=0.8 Vmaxpu=1.2 model=1 kW=5.436729579526792 kvar=1.2488470964899614 Phases=1 yearly=res_kw_454_pu

New Load.load_p1ulv4699_2 conn=wye bus1=p1ulv4699.2 kV=0.12 Vminpu=0.8 Vmaxpu=1.2 model=1 kW=5.436729579526792 kvar=1.2488470964899614 Phases=1 yearly=res_kw_454_pu

New Load.load_p1ulv4700_1 conn=wye bus1=p1ulv4700.1 kV=0.12 Vminpu=0.8 Vmaxpu=1.2 model=1 kW=14.404204781856079 kvar=3.036808033672637 Phases=1 yearly=res_kw_560_pu

New Load.load_p1ulv4700_2 conn=wye bus1=p1ulv4700.2 kV=0.12 Vminpu=0.8 Vmaxpu=1.2 model=1 kW=14.404204781856079 kvar=3.036808033672637 Phases=1 yearly=res_kw_560_pu

New Load.load_p1ulv4701_1 conn=wye bus1=p1ulv4701.1 kV=0.12 Vminpu=0.8 Vmaxpu=1.2 model=1 kW=3.469755020859998 kvar=0.8941520384931253 Phases=1 yearly=res_kw_4_pu

New Load.load_p1ulv4701_2 conn=wye bus1=p1ulv4701.2 kV=0.12 Vminpu=0.8 Vmaxpu=1.2 model=1 kW=3.469755020859998 kvar=0.8941520384931253 Phases=1 yearly=res_kw_4_pu

New Load.load_p1ulv4702_1 conn=wye bus1=p1ulv4702.1 kV=0.12 Vminpu=0.8 Vmaxpu=1.2 model=1 kW=2.40000228705824 kvar=1.0173787262529668 Phases=1 yearly=res_kw_1205_pu

New Load.load_p1ulv4702_2 conn=wye bus1=p1ulv4702.2 kV=0.12 Vminpu=0.8 Vmaxpu=1.2 model=1 kW=2.40000228705824 kvar=1.0173787262529668 Phases=1 yearly=res_kw_1205_pu

New Load.load_p1ulv4703_1 conn=wye bus1=p1ulv4703.1 kV=0.12 Vminpu=0.8 Vmaxpu=1.2 model=1 kW=5.436729579526792 kvar=1.2488470964899614 Phases=1 yearly=res_kw_454_pu

New Load.load_p1ulv4703_2 conn=wye bus1=p1ulv4703.2 kV=0.12 Vminpu=0.8 Vmaxpu=1.2 model=1 kW=5.436729579526792 kvar=1.2488470964899614 Phases=1 yearly=res_kw_454_pu

New Load.load_p1ulv4704_1 conn=wye bus1=p1ulv4704.1 kV=0.12 Vminpu=0.8 Vmaxpu=1.2 model=1 kW=2.40000228705824 kvar=1.0173787262529668 Phases=1 yearly=res_kw_1205_pu

New Load.load_p1ulv4704_2 conn=wye bus1=p1ulv4704.2 kV=0.12 Vminpu=0.8 Vmaxpu=1.2 model=1 kW=2.40000228705824 kvar=1.0173787262529668 Phases=1 yearly=res_kw_1205_pu

New Load.load_p1ulv4705_1 conn=wye bus1=p1ulv4705.1 kV=0.12 Vminpu=0.8 Vmaxpu=1.2 model=1 kW=2.40000228705824 kvar=1.0173787262529668 Phases=1 yearly=res_kw_1205_pu

New Load.load_p1ulv4705_2 conn=wye bus1=p1ulv4705.2 kV=0.12 Vminpu=0.8 Vmaxpu=1.2 model=1 kW=2.40000228705824 kvar=1.0173787262529668 Phases=1 yearly=res_kw_1205_pu

New Load.load_p1ulv4706_1 conn=wye bus1=p1ulv4706.1 kV=0.12 Vminpu=0.8 Vmaxpu=1.2 model=1 kW=2.40000228705824 kvar=1.0173787262529668 Phases=1 yearly=res_kw_1205_pu

New Load.load_p1ulv4706_2 conn=wye bus1=p1ulv4706.2 kV=0.12 Vminpu=0.8 Vmaxpu=1.2 model=1 kW=2.40000228705824 kvar=1.0173787262529668 Phases=1 yearly=res_kw_1205_pu

New Load.load_p1ulv4707_1 conn=wye bus1=p1ulv4707.1 kV=0.12 Vminpu=0.8 Vmaxpu=1.2 model=1 kW=5.436729579526792 kvar=1.2488470964899614 Phases=1 yearly=res_kw_454_pu

New Load.load_p1ulv4707_2 conn=wye bus1=p1ulv4707.2 kV=0.12 Vminpu=0.8 Vmaxpu=1.2 model=1 kW=5.436729579526792 kvar=1.2488470964899614 Phases=1 yearly=res_kw_454_pu

New Load.load_p1ulv4708_1 conn=wye bus1=p1ulv4708.1 kV=0.12 Vminpu=0.8 Vmaxpu=1.2 model=1 kW=5.436729579526792 kvar=1.2488470964899614 Phases=1 yearly=res_kw_454_pu

New Load.load_p1ulv4708_2 conn=wye bus1=p1ulv4708.2 kV=0.12 Vminpu=0.8 Vmaxpu=1.2 model=1 kW=5.436729579526792 kvar=1.2488470964899614 Phases=1 yearly=res_kw_454_pu

New Load.load_p1ulv4709_1 conn=wye bus1=p1ulv4709.1 kV=0.12 Vminpu=0.8 Vmaxpu=1.2 model=1 kW=5.436729579526792 kvar=1.2488470964899614 Phases=1 yearly=res_kw_454_pu

New Load.load_p1ulv4709_2 conn=wye bus1=p1ulv4709.2 kV=0.12 Vminpu=0.8 Vmaxpu=1.2 model=1 kW=5.436729579526792 kvar=1.2488470964899614 Phases=1 yearly=res_kw_454_pu

New Load.load_p1ulv4710_1 conn=wye bus1=p1ulv4710.1 kV=0.12 Vminpu=0.8 Vmaxpu=1.2 model=1 kW=2.40000228705824 kvar=1.0173787262529668 Phases=1 yearly=res_kw_1205_pu

New Load.load_p1ulv4710_2 conn=wye bus1=p1ulv4710.2 kV=0.12 Vminpu=0.8 Vmaxpu=1.2 model=1 kW=2.40000228705824 kvar=1.0173787262529668 Phases=1 yearly=res_kw_1205_pu

New Load.load_p1ulv4711_1 conn=wye bus1=p1ulv4711.1 kV=0.12 Vminpu=0.8 Vmaxpu=1.2 model=1 kW=5.436729579526792 kvar=1.2488470964899614 Phases=1 yearly=res_kw_454_pu

New Load.load_p1ulv4711_2 conn=wye bus1=p1ulv4711.2 kV=0.12 Vminpu=0.8 Vmaxpu=1.2 model=1 kW=5.436729579526792 kvar=1.2488470964899614 Phases=1 yearly=res_kw_454_pu

New Load.load_p1ulv4712_1 conn=wye bus1=p1ulv4712.1 kV=0.12 Vminpu=0.8 Vmaxpu=1.2 model=1 kW=5.436729579526792 kvar=1.2488470964899614 Phases=1 yearly=res_kw_454_pu

New Load.load_p1ulv4712_2 conn=wye bus1=p1ulv4712.2 kV=0.12 Vminpu=0.8 Vmaxpu=1.2 model=1 kW=5.436729579526792 kvar=1.2488470964899614 Phases=1 yearly=res_kw_454_pu

New Load.load_p1ulv4713_1 conn=wye bus1=p1ulv4713.1 kV=0.12 Vminpu=0.8 Vmaxpu=1.2 model=1 kW=2.40000228705824 kvar=1.0173787262529668 Phases=1 yearly=res_kw_1205_pu

New Load.load_p1ulv4713_2 conn=wye bus1=p1ulv4713.2 kV=0.12 Vminpu=0.8 Vmaxpu=1.2 model=1 kW=2.40000228705824 kvar=1.0173787262529668 Phases=1 yearly=res_kw_1205_pu

New Load.load_p1ulv4714_1 conn=wye bus1=p1ulv4714.1 kV=0.12 Vminpu=0.8 Vmaxpu=1.2 model=1 kW=5.657185051194877 kvar=1.2069063012387689 Phases=1 yearly=res_kw_780_pu

New Load.load_p1ulv4714_2 conn=wye bus1=p1ulv4714.2 kV=0.12 Vminpu=0.8 Vmaxpu=1.2 model=1 kW=5.657185051194877 kvar=1.2069063012387689 Phases=1 yearly=res_kw_780_pu

New Load.load_p1ulv4715_1 conn=wye bus1=p1ulv4715.1 kV=0.12 Vminpu=0.8 Vmaxpu=1.2 model=1 kW=5.436729579526792 kvar=1.2488470964899614 Phases=1 yearly=res_kw_454_pu

New Load.load_p1ulv4715_2 conn=wye bus1=p1ulv4715.2 kV=0.12 Vminpu=0.8 Vmaxpu=1.2 model=1 kW=5.436729579526792 kvar=1.2488470964899614 Phases=1 yearly=res_kw_454_pu

New Load.load_p1ulv4716_1 conn=wye bus1=p1ulv4716.1 kV=0.12 Vminpu=0.8 Vmaxpu=1.2 model=1 kW=5.436729579526792 kvar=1.2488470964899614 Phases=1 yearly=res_kw_454_pu

New Load.load_p1ulv4716_2 conn=wye bus1=p1ulv4716.2 kV=0.12 Vminpu=0.8 Vmaxpu=1.2 model=1 kW=5.436729579526792 kvar=1.2488470964899614 Phases=1 yearly=res_kw_454_pu

New Load.load_p1ulv4721_1 conn=wye bus1=p1ulv4721.1 kV=0.12 Vminpu=0.8 Vmaxpu=1.2 model=1 kW=5.436729579526792 kvar=1.2488470964899614 Phases=1 yearly=res_kw_454_pu

New Load.load_p1ulv4721_2 conn=wye bus1=p1ulv4721.2 kV=0.12 Vminpu=0.8 Vmaxpu=1.2 model=1 kW=5.436729579526792 kvar=1.2488470964899614 Phases=1 yearly=res_kw_454_pu

New Load.load_p1ulv4722_1 conn=wye bus1=p1ulv4722.1 kV=0.12 Vminpu=0.8 Vmaxpu=1.2 model=1 kW=4.897278139879629 kvar=1.0793580648076895 Phases=1 yearly=res_kw_645_pu

New Load.load_p1ulv4722_2 conn=wye bus1=p1ulv4722.2 kV=0.12 Vminpu=0.8 Vmaxpu=1.2 model=1 kW=4.897278139879629 kvar=1.0793580648076895 Phases=1 yearly=res_kw_645_pu

New Load.load_p1ulv4724_1 conn=wye bus1=p1ulv4724.1 kV=0.12 Vminpu=0.8 Vmaxpu=1.2 model=1 kW=5.436729579526792 kvar=1.2488470964899614 Phases=1 yearly=res_kw_454_pu

New Load.load_p1ulv4724_2 conn=wye bus1=p1ulv4724.2 kV=0.12 Vminpu=0.8 Vmaxpu=1.2 model=1 kW=5.436729579526792 kvar=1.2488470964899614 Phases=1 yearly=res_kw_454_pu

New Load.load_p1ulv4725_1 conn=wye bus1=p1ulv4725.1 kV=0.12 Vminpu=0.8 Vmaxpu=1.2 model=1 kW=5.436729579526792 kvar=1.2488470964899614 Phases=1 yearly=res_kw_454_pu

New Load.load_p1ulv4725_2 conn=wye bus1=p1ulv4725.2 kV=0.12 Vminpu=0.8 Vmaxpu=1.2 model=1 kW=5.436729579526792 kvar=1.2488470964899614 Phases=1 yearly=res_kw_454_pu

New Load.load_p1ulv4726_1 conn=wye bus1=p1ulv4726.1 kV=0.12 Vminpu=0.8 Vmaxpu=1.2 model=1 kW=9.619945726024039 kvar=2.195594903972493 Phases=1 yearly=res_kw_211_pu

New Load.load_p1ulv4726_2 conn=wye bus1=p1ulv4726.2 kV=0.12 Vminpu=0.8 Vmaxpu=1.2 model=1 kW=9.619945726024039 kvar=2.195594903972493 Phases=1 yearly=res_kw_211_pu

New Load.load_p1ulv4727_1 conn=wye bus1=p1ulv4727.1 kV=0.12 Vminpu=0.8 Vmaxpu=1.2 model=1 kW=5.436729579526792 kvar=1.2488470964899614 Phases=1 yearly=res_kw_454_pu

New Load.load_p1ulv4727_2 conn=wye bus1=p1ulv4727.2 kV=0.12 Vminpu=0.8 Vmaxpu=1.2 model=1 kW=5.436729579526792 kvar=1.2488470964899614 Phases=1 yearly=res_kw_454_pu

New Load.load_p1ulv4728_1 conn=wye bus1=p1ulv4728.1 kV=0.12 Vminpu=0.8 Vmaxpu=1.2 model=1 kW=5.436729579526792 kvar=1.2488470964899614 Phases=1 yearly=res_kw_454_pu

New Load.load_p1ulv4728_2 conn=wye bus1=p1ulv4728.2 kV=0.12 Vminpu=0.8 Vmaxpu=1.2 model=1 kW=5.436729579526792 kvar=1.2488470964899614 Phases=1 yearly=res_kw_454_pu

New Load.load_p1ulv4729_1 conn=wye bus1=p1ulv4729.1 kV=0.12 Vminpu=0.8 Vmaxpu=1.2 model=1 kW=5.436729579526792 kvar=1.2488470964899614 Phases=1 yearly=res_kw_454_pu

New Load.load_p1ulv4729_2 conn=wye bus1=p1ulv4729.2 kV=0.12 Vminpu=0.8 Vmaxpu=1.2 model=1 kW=5.436729579526792 kvar=1.2488470964899614 Phases=1 yearly=res_kw_454_pu

New Load.load_p1ulv4730_1 conn=wye bus1=p1ulv4730.1 kV=0.12 Vminpu=0.8 Vmaxpu=1.2 model=1 kW=9.666699253995569 kvar=2.090221480167897 Phases=1 yearly=res_kw_46_pu

New Load.load_p1ulv4730_2 conn=wye bus1=p1ulv4730.2 kV=0.12 Vminpu=0.8 Vmaxpu=1.2 model=1 kW=9.666699253995569 kvar=2.090221480167897 Phases=1 yearly=res_kw_46_pu

New Load.load_p1ulv4732_1 conn=wye bus1=p1ulv4732.1 kV=0.12 Vminpu=0.8 Vmaxpu=1.2 model=1 kW=2.1376631749204993 kvar=0.6218033466021168 Phases=1 yearly=res_kw_93_pu

New Load.load_p1ulv4732_2 conn=wye bus1=p1ulv4732.2 kV=0.12 Vminpu=0.8 Vmaxpu=1.2 model=1 kW=2.1376631749204993 kvar=0.6218033466021168 Phases=1 yearly=res_kw_93_pu

New Load.load_p1ulv4734_1 conn=wye bus1=p1ulv4734.1 kV=0.12 Vminpu=0.8 Vmaxpu=1.2 model=1 kW=3.6844020253442458 kvar=1.4451491397155931 Phases=1 yearly=res_kw_1258_pu

New Load.load_p1ulv4734_2 conn=wye bus1=p1ulv4734.2 kV=0.12 Vminpu=0.8 Vmaxpu=1.2 model=1 kW=3.6844020253442458 kvar=1.4451491397155931 Phases=1 yearly=res_kw_1258_pu

New Load.load_p1ulv5778_1 conn=wye bus1=p1ulv5778.1 kV=0.12 Vminpu=0.8 Vmaxpu=1.2 model=1 kW=4.081735511976485 kvar=0.9882394625849078 Phases=1 yearly=com_kw_14650_pu

New Load.load_p1ulv5778_2 conn=wye bus1=p1ulv5778.2 kV=0.12 Vminpu=0.8 Vmaxpu=1.2 model=1 kW=4.081735511976485 kvar=0.9882394625849078 Phases=1 yearly=com_kw_14650_pu

New Load.load_p1ulv5779_1 conn=wye bus1=p1ulv5779.1 kV=0.12 Vminpu=0.8 Vmaxpu=1.2 model=1 kW=3.0721844660900577 kvar=0.7060482494440881 Phases=1 yearly=com_kw_13303_pu

New Load.load_p1ulv5779_2 conn=wye bus1=p1ulv5779.2 kV=0.12 Vminpu=0.8 Vmaxpu=1.2 model=1 kW=3.0721844660900577 kvar=0.7060482494440881 Phases=1 yearly=com_kw_13303_pu

New Load.load_p1ulv5780_1 conn=wye bus1=p1ulv5780.1 kV=0.12 Vminpu=0.8 Vmaxpu=1.2 model=1 kW=3.0721844660900577 kvar=0.7060482494440881 Phases=1 yearly=com_kw_13303_pu

New Load.load_p1ulv5780_2 conn=wye bus1=p1ulv5780.2 kV=0.12 Vminpu=0.8 Vmaxpu=1.2 model=1 kW=3.0721844660900577 kvar=0.7060482494440881 Phases=1 yearly=com_kw_13303_pu

New Load.load_p1ulv5781_1 conn=wye bus1=p1ulv5781.1 kV=0.12 Vminpu=0.8 Vmaxpu=1.2 model=1 kW=3.0721844660900577 kvar=0.7060482494440881 Phases=1 yearly=com_kw_13303_pu

New Load.load_p1ulv5781_2 conn=wye bus1=p1ulv5781.2 kV=0.12 Vminpu=0.8 Vmaxpu=1.2 model=1 kW=3.0721844660900577 kvar=0.7060482494440881 Phases=1 yearly=com_kw_13303_pu

New Load.load_p1ulv5782_1 conn=wye bus1=p1ulv5782.1 kV=0.12 Vminpu=0.8 Vmaxpu=1.2 model=1 kW=3.0721844660900577 kvar=0.7060482494440881 Phases=1 yearly=com_kw_13303_pu

New Load.load_p1ulv5782_2 conn=wye bus1=p1ulv5782.2 kV=0.12 Vminpu=0.8 Vmaxpu=1.2 model=1 kW=3.0721844660900577 kvar=0.7060482494440881 Phases=1 yearly=com_kw_13303_pu

New Load.load_p1ulv5783_1 conn=wye bus1=p1ulv5783.1 kV=0.12 Vminpu=0.8 Vmaxpu=1.2 model=1 kW=3.0721844660900577 kvar=0.7060482494440881 Phases=1 yearly=com_kw_13303_pu

New Load.load_p1ulv5783_2 conn=wye bus1=p1ulv5783.2 kV=0.12 Vminpu=0.8 Vmaxpu=1.2 model=1 kW=3.0721844660900577 kvar=0.7060482494440881 Phases=1 yearly=com_kw_13303_pu

New Load.load_p1ulv5784_1 conn=wye bus1=p1ulv5784.1 kV=0.12 Vminpu=0.8 Vmaxpu=1.2 model=1 kW=3.185677527023716 kvar=0.7066929516502537 Phases=1 yearly=com_kw_13750_pu

New Load.load_p1ulv5784_2 conn=wye bus1=p1ulv5784.2 kV=0.12 Vminpu=0.8 Vmaxpu=1.2 model=1 kW=3.185677527023716 kvar=0.7066929516502537 Phases=1 yearly=com_kw_13750_pu

New Load.load_p1ulv5785_1 conn=wye bus1=p1ulv5785.1 kV=0.12 Vminpu=0.8 Vmaxpu=1.2 model=1 kW=4.081735511976485 kvar=0.9882394625849078 Phases=1 yearly=com_kw_14650_pu

New Load.load_p1ulv5785_2 conn=wye bus1=p1ulv5785.2 kV=0.12 Vminpu=0.8 Vmaxpu=1.2 model=1 kW=4.081735511976485 kvar=0.9882394625849078 Phases=1 yearly=com_kw_14650_pu

New Load.load_p1ulv5786_1 conn=wye bus1=p1ulv5786.1 kV=0.12 Vminpu=0.8 Vmaxpu=1.2 model=1 kW=13.251431311430247 kvar=0.1493407165487586 Phases=1 yearly=com_kw_14976_pu

New Load.load_p1ulv5786_2 conn=wye bus1=p1ulv5786.2 kV=0.12 Vminpu=0.8 Vmaxpu=1.2 model=1 kW=13.251431311430247 kvar=0.1493407165487586 Phases=1 yearly=com_kw_14976_pu

New Load.load_p1ulv6397 conn=wye bus1=p1ulv6397.1.2.3 kV=0.48 Vminpu=0.8 Vmaxpu=1.2 model=1 kW=91.44919468764152 kvar=4.535504476076792 Phases=3 yearly=com_kw_14992_pu

New Load.load_p1ulv6398 conn=wye bus1=p1ulv6398.1.2.3 kV=0.48 Vminpu=0.8 Vmaxpu=1.2 model=1 kW=75.82873447695789 kvar=19.487647983534934 Phases=3 yearly=com_kw_14030_pu

New Load.load_p1ulv6399 conn=wye bus1=p1ulv6399.1.2.3 kV=0.48 Vminpu=0.8 Vmaxpu=1.2 model=1 kW=63.78331215443784 kvar=13.900737235142476 Phases=3 yearly=com_kw_14242_pu

New Load.load_p1ulv6400 conn=wye bus1=p1ulv6400.1.2.3 kV=0.48 Vminpu=0.8 Vmaxpu=1.2 model=1 kW=57.69463172198236 kvar=8.003420052045708 Phases=3 yearly=com_kw_14074_pu

New Load.load_p1ulv7317_1 conn=wye bus1=p1ulv7317.1 kV=0.12 Vminpu=0.8 Vmaxpu=1.2 model=1 kW=9.619945726024039 kvar=2.195594903972493 Phases=1 yearly=res_kw_211_pu

New Load.load_p1ulv7317_2 conn=wye bus1=p1ulv7317.2 kV=0.12 Vminpu=0.8 Vmaxpu=1.2 model=1 kW=9.619945726024039 kvar=2.195594903972493 Phases=1 yearly=res_kw_211_pu

New Load.load_p1ulv7318_1 conn=wye bus1=p1ulv7318.1 kV=0.12 Vminpu=0.8 Vmaxpu=1.2 model=1 kW=3.6844020253442458 kvar=1.4451491397155931 Phases=1 yearly=res_kw_1258_pu

New Load.load_p1ulv7318_2 conn=wye bus1=p1ulv7318.2 kV=0.12 Vminpu=0.8 Vmaxpu=1.2 model=1 kW=3.6844020253442458 kvar=1.4451491397155931 Phases=1 yearly=res_kw_1258_pu

New Load.load_p1ulv7319_1 conn=wye bus1=p1ulv7319.1 kV=0.12 Vminpu=0.8 Vmaxpu=1.2 model=1 kW=3.460037762068802 kvar=0.6117019426679855 Phases=1 yearly=res_kw_205_pu

New Load.load_p1ulv7319_2 conn=wye bus1=p1ulv7319.2 kV=0.12 Vminpu=0.8 Vmaxpu=1.2 model=1 kW=3.460037762068802 kvar=0.6117019426679855 Phases=1 yearly=res_kw_205_pu

New Load.load_p1ulv7320_1 conn=wye bus1=p1ulv7320.1 kV=0.12 Vminpu=0.8 Vmaxpu=1.2 model=1 kW=3.0502193323758338 kvar=0.7068547525403183 Phases=1 yearly=res_kw_407_pu

New Load.load_p1ulv7320_2 conn=wye bus1=p1ulv7320.2 kV=0.12 Vminpu=0.8 Vmaxpu=1.2 model=1 kW=3.0502193323758338 kvar=0.7068547525403183 Phases=1 yearly=res_kw_407_pu

New Load.load_p1ulv7321_1 conn=wye bus1=p1ulv7321.1 kV=0.12 Vminpu=0.8 Vmaxpu=1.2 model=1 kW=2.6241521841182514 kvar=0.8429304779950015 Phases=1 yearly=res_kw_33_pu

New Load.load_p1ulv7321_2 conn=wye bus1=p1ulv7321.2 kV=0.12 Vminpu=0.8 Vmaxpu=1.2 model=1 kW=2.6241521841182514 kvar=0.8429304779950015 Phases=1 yearly=res_kw_33_pu

New Load.load_p1ulv7322_1 conn=wye bus1=p1ulv7322.1 kV=0.12 Vminpu=0.8 Vmaxpu=1.2 model=1 kW=5.723135606665604 kvar=1.5038194991101048 Phases=1 yearly=res_kw_1228_pu

New Load.load_p1ulv7322_2 conn=wye bus1=p1ulv7322.2 kV=0.12 Vminpu=0.8 Vmaxpu=1.2 model=1 kW=5.723135606665604 kvar=1.5038194991101048 Phases=1 yearly=res_kw_1228_pu

New Load.load_p1umv13 conn=wye bus1=p1umv13.1.2.3 kV=12.47 Vminpu=0.8 Vmaxpu=1.2 model=1 kW=501.4166135095707 kvar=84.66172832325124 Phases=3 yearly=com_kw_13965_pu

New Load.load_p1ulv9333_1 conn=wye bus1=p1ulv9333.1 kV=0.12 Vminpu=0.8 Vmaxpu=1.2 model=1 kW=6.847378896370207 kvar=0.2857422414791666 Phases=1 yearly=com_kw_14382_pu

New Load.load_p1ulv9333_2 conn=wye bus1=p1ulv9333.2 kV=0.12 Vminpu=0.8 Vmaxpu=1.2 model=1 kW=6.847378896370207 kvar=0.2857422414791666 Phases=1 yearly=com_kw_14382_pu

New Load.load_p1ulv9334_1 conn=wye bus1=p1ulv9334.1 kV=0.12 Vminpu=0.8 Vmaxpu=1.2 model=1 kW=6.847378896370207 kvar=0.2857422414791666 Phases=1 yearly=com_kw_14382_pu

New Load.load_p1ulv9334_2 conn=wye bus1=p1ulv9334.2 kV=0.12 Vminpu=0.8 Vmaxpu=1.2 model=1 kW=6.847378896370207 kvar=0.2857422414791666 Phases=1 yearly=com_kw_14382_pu

New Load.load_p1ulv9335 conn=wye bus1=p1ulv9335.1.2.3 kV=0.48 Vminpu=0.8 Vmaxpu=1.2 model=1 kW=39.0072223129537 kvar=9.746263475181971 Phases=3 yearly=com_kw_14919_pu

New Load.load_p1ulv9336 conn=wye bus1=p1ulv9336.1.2.3 kV=0.48 Vminpu=0.8 Vmaxpu=1.2 model=1 kW=25.30417501681602 kvar=7.179767776712684 Phases=3 yearly=com_kw_14809_pu

New Load.load_p1ulv9337 conn=wye bus1=p1ulv9337.1.2.3 kV=0.48 Vminpu=0.8 Vmaxpu=1.2 model=1 kW=139.8917722207126 kvar=6.109246877535022 Phases=3 yearly=com_kw_14536_pu

New Load.load_p1ulv9338 conn=wye bus1=p1ulv9338.1.2.3 kV=0.48 Vminpu=0.8 Vmaxpu=1.2 model=1 kW=22.152047737869896 kvar=6.510834234174965 Phases=3 yearly=com_kw_14325_pu

New Load.load_p1ulv9346_1 conn=wye bus1=p1ulv9346.1 kV=0.12 Vminpu=0.8 Vmaxpu=1.2 model=1 kW=9.714824107075419 kvar=0.5644140404721908 Phases=1 yearly=com_kw_14893_pu

New Load.load_p1ulv9346_2 conn=wye bus1=p1ulv9346.2 kV=0.12 Vminpu=0.8 Vmaxpu=1.2 model=1 kW=9.714824107075419 kvar=0.5644140404721908 Phases=1 yearly=com_kw_14893_pu

New Load.load_p1ulv9348_1 conn=wye bus1=p1ulv9348.1 kV=0.12 Vminpu=0.8 Vmaxpu=1.2 model=1 kW=4.8375139025721365 kvar=0.35349025429812664 Phases=1 yearly=com_kw_13636_pu

New Load.load_p1ulv9348_2 conn=wye bus1=p1ulv9348.2 kV=0.12 Vminpu=0.8 Vmaxpu=1.2 model=1 kW=4.8375139025721365 kvar=0.35349025429812664 Phases=1 yearly=com_kw_13636_pu

New Load.load_p1ulv9349_1 conn=wye bus1=p1ulv9349.1 kV=0.12 Vminpu=0.8 Vmaxpu=1.2 model=1 kW=9.28805453265179 kvar=0.33968358420257083 Phases=1 yearly=com_kw_12995_pu

New Load.load_p1ulv9349_2 conn=wye bus1=p1ulv9349.2 kV=0.12 Vminpu=0.8 Vmaxpu=1.2 model=1 kW=9.28805453265179 kvar=0.33968358420257083 Phases=1 yearly=com_kw_12995_pu

New Load.load_p1ulv9351 conn=wye bus1=p1ulv9351.1.2.3 kV=0.48 Vminpu=0.8 Vmaxpu=1.2 model=1 kW=139.8917722207126 kvar=6.109246877535022 Phases=3 yearly=com_kw_14536_pu
