New Load.load_p1ulv644_1 conn=wye bus1=p1ulv644.1 kV=0.12 Vminpu=0.8 Vmaxpu=1.2 model=1 kW=1.8636614682402992 kvar=0.5015179682387616 Phases=1 yearly=res_kw_532_pu

New Load.load_p1ulv644_2 conn=wye bus1=p1ulv644.2 kV=0.12 Vminpu=0.8 Vmaxpu=1.2 model=1 kW=1.8636614682402992 kvar=0.5015179682387616 Phases=1 yearly=res_kw_532_pu

New Load.load_p1ulv645_1 conn=wye bus1=p1ulv645.1 kV=0.12 Vminpu=0.8 Vmaxpu=1.2 model=1 kW=7.235767165926777 kvar=2.6686267970114135 Phases=1 yearly=res_kw_652_pu

New Load.load_p1ulv645_2 conn=wye bus1=p1ulv645.2 kV=0.12 Vminpu=0.8 Vmaxpu=1.2 model=1 kW=7.235767165926777 kvar=2.6686267970114135 Phases=1 yearly=res_kw_652_pu

New Load.load_p1ulv646_1 conn=wye bus1=p1ulv646.1 kV=0.12 Vminpu=0.8 Vmaxpu=1.2 model=1 kW=4.2307467678291735 kvar=1.0467542494319235 Phases=1 yearly=res_kw_334_pu

New Load.load_p1ulv646_2 conn=wye bus1=p1ulv646.2 kV=0.12 Vminpu=0.8 Vmaxpu=1.2 model=1 kW=4.2307467678291735 kvar=1.0467542494319235 Phases=1 yearly=res_kw_334_pu

New Load.load_p1ulv647_1 conn=wye bus1=p1ulv647.1 kV=0.12 Vminpu=0.8 Vmaxpu=1.2 model=1 kW=2.47170658682663 kvar=0.5373197382437959 Phases=1 yearly=res_kw_39_pu

New Load.load_p1ulv647_2 conn=wye bus1=p1ulv647.2 kV=0.12 Vminpu=0.8 Vmaxpu=1.2 model=1 kW=2.47170658682663 kvar=0.5373197382437959 Phases=1 yearly=res_kw_39_pu

New Load.load_p1ulv648_1 conn=wye bus1=p1ulv648.1 kV=0.12 Vminpu=0.8 Vmaxpu=1.2 model=1 kW=4.78815623948431 kvar=1.2110296754961107 Phases=1 yearly=res_kw_842_pu

New Load.load_p1ulv648_2 conn=wye bus1=p1ulv648.2 kV=0.12 Vminpu=0.8 Vmaxpu=1.2 model=1 kW=4.78815623948431 kvar=1.2110296754961107 Phases=1 yearly=res_kw_842_pu

New Load.load_p1ulv649_1 conn=wye bus1=p1ulv649.1 kV=0.12 Vminpu=0.8 Vmaxpu=1.2 model=1 kW=2.6241521841182514 kvar=0.8429304779950015 Phases=1 yearly=res_kw_33_pu

New Load.load_p1ulv649_2 conn=wye bus1=p1ulv649.2 kV=0.12 Vminpu=0.8 Vmaxpu=1.2 model=1 kW=2.6241521841182514 kvar=0.8429304779950015 Phases=1 yearly=res_kw_33_pu

New Load.load_p1ulv650_1 conn=wye bus1=p1ulv650.1 kV=0.12 Vminpu=0.8 Vmaxpu=1.2 model=1 kW=2.1376631749204993 kvar=0.6218033466021168 Phases=1 yearly=res_kw_93_pu

New Load.load_p1ulv650_2 conn=wye bus1=p1ulv650.2 kV=0.12 Vminpu=0.8 Vmaxpu=1.2 model=1 kW=2.1376631749204993 kvar=0.6218033466021168 Phases=1 yearly=res_kw_93_pu

New Load.load_p1ulv651_1 conn=wye bus1=p1ulv650.1 kV=0.12 Vminpu=0.8 Vmaxpu=1.2 model=1 kW=2.1894046505184286 kvar=0.7281040757251952 Phases=1 yearly=res_kw_1042_pu

New Load.load_p1ulv651_2 conn=wye bus1=p1ulv650.2 kV=0.12 Vminpu=0.8 Vmaxpu=1.2 model=1 kW=2.1894046505184286 kvar=0.7281040757251952 Phases=1 yearly=res_kw_1042_pu

New Load.load_p1ulv652_1 conn=wye bus1=p1ulv652.1 kV=0.12 Vminpu=0.8 Vmaxpu=1.2 model=1 kW=2.6241521841182514 kvar=0.8429304779950015 Phases=1 yearly=res_kw_33_pu

New Load.load_p1ulv652_2 conn=wye bus1=p1ulv652.2 kV=0.12 Vminpu=0.8 Vmaxpu=1.2 model=1 kW=2.6241521841182514 kvar=0.8429304779950015 Phases=1 yearly=res_kw_33_pu

New Load.load_p1ulv655_1 conn=wye bus1=p1ulv655.1 kV=0.12 Vminpu=0.8 Vmaxpu=1.2 model=1 kW=2.1376631749204993 kvar=0.6218033466021168 Phases=1 yearly=res_kw_93_pu

New Load.load_p1ulv655_2 conn=wye bus1=p1ulv655.2 kV=0.12 Vminpu=0.8 Vmaxpu=1.2 model=1 kW=2.1376631749204993 kvar=0.6218033466021168 Phases=1 yearly=res_kw_93_pu

New Load.load_p1ulv662_1 conn=wye bus1=p1ulv662.1 kV=0.12 Vminpu=0.8 Vmaxpu=1.2 model=1 kW=2.6241521841182514 kvar=0.8429304779950015 Phases=1 yearly=res_kw_33_pu

New Load.load_p1ulv662_2 conn=wye bus1=p1ulv662.2 kV=0.12 Vminpu=0.8 Vmaxpu=1.2 model=1 kW=2.6241521841182514 kvar=0.8429304779950015 Phases=1 yearly=res_kw_33_pu

New Load.load_p1ulv663_1 conn=wye bus1=p1ulv662.1 kV=0.12 Vminpu=0.8 Vmaxpu=1.2 model=1 kW=2.605021030189827 kvar=1.0007509371876184 Phases=1 yearly=res_kw_24_pu

New Load.load_p1ulv663_2 conn=wye bus1=p1ulv662.2 kV=0.12 Vminpu=0.8 Vmaxpu=1.2 model=1 kW=2.605021030189827 kvar=1.0007509371876184 Phases=1 yearly=res_kw_24_pu

New Load.load_p1ulv664_1 conn=wye bus1=p1ulv664.1 kV=0.12 Vminpu=0.8 Vmaxpu=1.2 model=1 kW=2.605021030189827 kvar=1.0007509371876184 Phases=1 yearly=res_kw_24_pu

New Load.load_p1ulv664_2 conn=wye bus1=p1ulv664.2 kV=0.12 Vminpu=0.8 Vmaxpu=1.2 model=1 kW=2.605021030189827 kvar=1.0007509371876184 Phases=1 yearly=res_kw_24_pu

New Load.load_p1ulv665_1 conn=wye bus1=p1ulv665.1 kV=0.12 Vminpu=0.8 Vmaxpu=1.2 model=1 kW=2.6241521841182514 kvar=0.8429304779950015 Phases=1 yearly=res_kw_33_pu

New Load.load_p1ulv665_2 conn=wye bus1=p1ulv665.2 kV=0.12 Vminpu=0.8 Vmaxpu=1.2 model=1 kW=2.6241521841182514 kvar=0.8429304779950015 Phases=1 yearly=res_kw_33_pu

New Load.load_p1ulv666_1 conn=wye bus1=p1ulv666.1 kV=0.12 Vminpu=0.8 Vmaxpu=1.2 model=1 kW=1.8618983584330409 kvar=0.7337589993741062 Phases=1 yearly=res_kw_141_pu

New Load.load_p1ulv666_2 conn=wye bus1=p1ulv666.2 kV=0.12 Vminpu=0.8 Vmaxpu=1.2 model=1 kW=1.8618983584330409 kvar=0.7337589993741062 Phases=1 yearly=res_kw_141_pu

New Load.load_p1ulv667_1 conn=wye bus1=p1ulv667.1 kV=0.12 Vminpu=0.8 Vmaxpu=1.2 model=1 kW=2.6241521841182514 kvar=0.8429304779950015 Phases=1 yearly=res_kw_33_pu

New Load.load_p1ulv667_2 conn=wye bus1=p1ulv667.2 kV=0.12 Vminpu=0.8 Vmaxpu=1.2 model=1 kW=2.6241521841182514 kvar=0.8429304779950015 Phases=1 yearly=res_kw_33_pu

New Load.load_p1ulv676 conn=wye bus1=p1ulv676.1.2.3 kV=0.48 Vminpu=0.8 Vmaxpu=1.2 model=1 kW=139.8917722207126 kvar=6.109246877535022 Phases=3 yearly=com_kw_14536_pu

New Load.load_p1ulv677 conn=wye bus1=p1ulv677.1.2.3 kV=0.48 Vminpu=0.8 Vmaxpu=1.2 model=1 kW=39.0072223129537 kvar=9.746263475181971 Phases=3 yearly=com_kw_14919_pu

New Load.load_p1ulv678 conn=wye bus1=p1ulv678.1.2.3 kV=0.48 Vminpu=0.8 Vmaxpu=1.2 model=1 kW=29.06847666053555 kvar=5.848529560450256 Phases=3 yearly=com_kw_14619_pu

New Load.load_p1ulv679 conn=wye bus1=p1ulv679.1.2.3 kV=0.48 Vminpu=0.8 Vmaxpu=1.2 model=1 kW=139.8917722207126 kvar=6.109246877535022 Phases=3 yearly=com_kw_14536_pu

New Load.load_p1ulv680 conn=wye bus1=p1ulv680.1.2.3 kV=0.48 Vminpu=0.8 Vmaxpu=1.2 model=1 kW=41.27726434904335 kvar=10.826959957077602 Phases=3 yearly=com_kw_13682_pu

New Load.load_p1ulv681 conn=wye bus1=p1ulv681.1.2.3 kV=0.48 Vminpu=0.8 Vmaxpu=1.2 model=1 kW=41.27726434904335 kvar=10.826959957077602 Phases=3 yearly=com_kw_13682_pu

New Load.load_p1ulv2360_1 conn=wye bus1=p1ulv2360.1 kV=0.12 Vminpu=0.8 Vmaxpu=1.2 model=1 kW=4.788649591238137 kvar=1.023651375705972 Phases=1 yearly=res_kw_512_pu

New Load.load_p1ulv2360_2 conn=wye bus1=p1ulv2360.2 kV=0.12 Vminpu=0.8 Vmaxpu=1.2 model=1 kW=4.788649591238137 kvar=1.023651375705972 Phases=1 yearly=res_kw_512_pu

New Load.load_p1ulv2361_1 conn=wye bus1=p1ulv2361.1 kV=0.12 Vminpu=0.8 Vmaxpu=1.2 model=1 kW=1.8618983584330409 kvar=0.7337589993741062 Phases=1 yearly=res_kw_141_pu

New Load.load_p1ulv2361_2 conn=wye bus1=p1ulv2361.2 kV=0.12 Vminpu=0.8 Vmaxpu=1.2 model=1 kW=1.8618983584330409 kvar=0.7337589993741062 Phases=1 yearly=res_kw_141_pu

New Load.load_p1ulv2362_1 conn=wye bus1=p1ulv2362.1 kV=0.12 Vminpu=0.8 Vmaxpu=1.2 model=1 kW=2.1578213071803583 kvar=0.8327090061289109 Phases=1 yearly=res_kw_696_pu

New Load.load_p1ulv2362_2 conn=wye bus1=p1ulv2362.2 kV=0.12 Vminpu=0.8 Vmaxpu=1.2 model=1 kW=2.1578213071803583 kvar=0.8327090061289109 Phases=1 yearly=res_kw_696_pu

New Load.load_p1ulv2363_1 conn=wye bus1=p1ulv2363.1 kV=0.12 Vminpu=0.8 Vmaxpu=1.2 model=1 kW=2.1376631749204993 kvar=0.6218033466021168 Phases=1 yearly=res_kw_93_pu

New Load.load_p1ulv2363_2 conn=wye bus1=p1ulv2363.2 kV=0.12 Vminpu=0.8 Vmaxpu=1.2 model=1 kW=2.1376631749204993 kvar=0.6218033466021168 Phases=1 yearly=res_kw_93_pu

New Load.load_p1ulv2364_1 conn=wye bus1=p1ulv2364.1 kV=0.12 Vminpu=0.8 Vmaxpu=1.2 model=1 kW=4.788649591238137 kvar=1.023651375705972 Phases=1 yearly=res_kw_512_pu

New Load.load_p1ulv2364_2 conn=wye bus1=p1ulv2364.2 kV=0.12 Vminpu=0.8 Vmaxpu=1.2 model=1 kW=4.788649591238137 kvar=1.023651375705972 Phases=1 yearly=res_kw_512_pu

New Load.load_p1ulv2365_1 conn=wye bus1=p1ulv2365.1 kV=0.12 Vminpu=0.8 Vmaxpu=1.2 model=1 kW=2.605021030189827 kvar=1.0007509371876184 Phases=1 yearly=res_kw_24_pu

New Load.load_p1ulv2365_2 conn=wye bus1=p1ulv2365.2 kV=0.12 Vminpu=0.8 Vmaxpu=1.2 model=1 kW=2.605021030189827 kvar=1.0007509371876184 Phases=1 yearly=res_kw_24_pu

New Load.load_p1ulv2366_1 conn=wye bus1=p1ulv2365.1 kV=0.12 Vminpu=0.8 Vmaxpu=1.2 model=1 kW=2.1376631749204993 kvar=0.6218033466021168 Phases=1 yearly=res_kw_93_pu

New Load.load_p1ulv2366_2 conn=wye bus1=p1ulv2365.2 kV=0.12 Vminpu=0.8 Vmaxpu=1.2 model=1 kW=2.1376631749204993 kvar=0.6218033466021168 Phases=1 yearly=res_kw_93_pu

New Load.load_p1ulv2367_1 conn=wye bus1=p1ulv2367.1 kV=0.12 Vminpu=0.8 Vmaxpu=1.2 model=1 kW=6.520159505202592 kvar=1.1378587223610979 Phases=1 yearly=res_kw_879_pu

New Load.load_p1ulv2367_2 conn=wye bus1=p1ulv2367.2 kV=0.12 Vminpu=0.8 Vmaxpu=1.2 model=1 kW=6.520159505202592 kvar=1.1378587223610979 Phases=1 yearly=res_kw_879_pu

New Load.load_p1ulv2368_1 conn=wye bus1=p1ulv2368.1 kV=0.12 Vminpu=0.8 Vmaxpu=1.2 model=1 kW=2.1376631749204993 kvar=0.6218033466021168 Phases=1 yearly=res_kw_93_pu

New Load.load_p1ulv2368_2 conn=wye bus1=p1ulv2368.2 kV=0.12 Vminpu=0.8 Vmaxpu=1.2 model=1 kW=2.1376631749204993 kvar=0.6218033466021168 Phases=1 yearly=res_kw_93_pu

New Load.load_p1ulv2369_1 conn=wye bus1=p1ulv2369.1 kV=0.12 Vminpu=0.8 Vmaxpu=1.2 model=1 kW=2.47170658682663 kvar=0.5373197382437959 Phases=1 yearly=res_kw_39_pu

New Load.load_p1ulv2369_2 conn=wye bus1=p1ulv2369.2 kV=0.12 Vminpu=0.8 Vmaxpu=1.2 model=1 kW=2.47170658682663 kvar=0.5373197382437959 Phases=1 yearly=res_kw_39_pu

New Load.load_p1ulv2370_1 conn=wye bus1=p1ulv2370.1 kV=0.12 Vminpu=0.8 Vmaxpu=1.2 model=1 kW=1.8618983584330409 kvar=0.7337589993741062 Phases=1 yearly=res_kw_141_pu

New Load.load_p1ulv2370_2 conn=wye bus1=p1ulv2370.2 kV=0.12 Vminpu=0.8 Vmaxpu=1.2 model=1 kW=1.8618983584330409 kvar=0.7337589993741062 Phases=1 yearly=res_kw_141_pu

New Load.load_p1ulv2371_1 conn=wye bus1=p1ulv2370.1 kV=0.12 Vminpu=0.8 Vmaxpu=1.2 model=1 kW=2.1376631749204993 kvar=0.6218033466021168 Phases=1 yearly=res_kw_93_pu

New Load.load_p1ulv2371_2 conn=wye bus1=p1ulv2370.2 kV=0.12 Vminpu=0.8 Vmaxpu=1.2 model=1 kW=2.1376631749204993 kvar=0.6218033466021168 Phases=1 yearly=res_kw_93_pu

New Load.load_p1ulv2372_1 conn=wye bus1=p1ulv2372.1 kV=0.12 Vminpu=0.8 Vmaxpu=1.2 model=1 kW=3.3641909207712115 kvar=0.9284266244461494 Phases=1 yearly=res_kw_523_pu

New Load.load_p1ulv2372_2 conn=wye bus1=p1ulv2372.2 kV=0.12 Vminpu=0.8 Vmaxpu=1.2 model=1 kW=3.3641909207712115 kvar=0.9284266244461494 Phases=1 yearly=res_kw_523_pu

New Load.load_p1ulv2373_1 conn=wye bus1=p1ulv2373.1 kV=0.12 Vminpu=0.8 Vmaxpu=1.2 model=1 kW=2.605021030189827 kvar=1.0007509371876184 Phases=1 yearly=res_kw_24_pu

New Load.load_p1ulv2373_2 conn=wye bus1=p1ulv2373.2 kV=0.12 Vminpu=0.8 Vmaxpu=1.2 model=1 kW=2.605021030189827 kvar=1.0007509371876184 Phases=1 yearly=res_kw_24_pu

New Load.load_p1ulv2374_1 conn=wye bus1=p1ulv2374.1 kV=0.12 Vminpu=0.8 Vmaxpu=1.2 model=1 kW=2.6241521841182514 kvar=0.8429304779950015 Phases=1 yearly=res_kw_33_pu

New Load.load_p1ulv2374_2 conn=wye bus1=p1ulv2374.2 kV=0.12 Vminpu=0.8 Vmaxpu=1.2 model=1 kW=2.6241521841182514 kvar=0.8429304779950015 Phases=1 yearly=res_kw_33_pu

New Load.load_p1ulv2375_1 conn=wye bus1=p1ulv2375.1 kV=0.12 Vminpu=0.8 Vmaxpu=1.2 model=1 kW=2.1376631749204993 kvar=0.6218033466021168 Phases=1 yearly=res_kw_93_pu

New Load.load_p1ulv2375_2 conn=wye bus1=p1ulv2375.2 kV=0.12 Vminpu=0.8 Vmaxpu=1.2 model=1 kW=2.1376631749204993 kvar=0.6218033466021168 Phases=1 yearly=res_kw_93_pu

New Load.load_p1ulv2376_1 conn=wye bus1=p1ulv2376.1 kV=0.12 Vminpu=0.8 Vmaxpu=1.2 model=1 kW=2.6241521841182514 kvar=0.8429304779950015 Phases=1 yearly=res_kw_33_pu

New Load.load_p1ulv2376_2 conn=wye bus1=p1ulv2376.2 kV=0.12 Vminpu=0.8 Vmaxpu=1.2 model=1 kW=2.6241521841182514 kvar=0.8429304779950015 Phases=1 yearly=res_kw_33_pu

New Load.load_p1ulv2377_1 conn=wye bus1=p1ulv2377.1 kV=0.12 Vminpu=0.8 Vmaxpu=1.2 model=1 kW=3.3701610259235064 kvar=1.065454990641787 Phases=1 yearly=res_kw_1037_pu

New Load.load_p1ulv2377_2 conn=wye bus1=p1ulv2377.2 kV=0.12 Vminpu=0.8 Vmaxpu=1.2 model=1 kW=3.3701610259235064 kvar=1.065454990641787 Phases=1 yearly=res_kw_1037_pu

New Load.load_p1ulv2378_1 conn=wye bus1=p1ulv2378.1 kV=0.12 Vminpu=0.8 Vmaxpu=1.2 model=1 kW=2.658027342573646 kvar=0.9113625924854422 Phases=1 yearly=res_kw_1105_pu

New Load.load_p1ulv2378_2 conn=wye bus1=p1ulv2378.2 kV=0.12 Vminpu=0.8 Vmaxpu=1.2 model=1 kW=2.658027342573646 kvar=0.9113625924854422 Phases=1 yearly=res_kw_1105_pu

New Load.load_p1ulv2379_1 conn=wye bus1=p1ulv2379.1 kV=0.12 Vminpu=0.8 Vmaxpu=1.2 model=1 kW=2.1894046505184286 kvar=0.7281040757251952 Phases=1 yearly=res_kw_1042_pu

New Load.load_p1ulv2379_2 conn=wye bus1=p1ulv2379.2 kV=0.12 Vminpu=0.8 Vmaxpu=1.2 model=1 kW=2.1894046505184286 kvar=0.7281040757251952 Phases=1 yearly=res_kw_1042_pu

New Load.load_p1ulv2380_1 conn=wye bus1=p1ulv2380.1 kV=0.12 Vminpu=0.8 Vmaxpu=1.2 model=1 kW=5.675346369339635 kvar=1.238985226090579 Phases=1 yearly=res_kw_1186_pu

New Load.load_p1ulv2380_2 conn=wye bus1=p1ulv2380.2 kV=0.12 Vminpu=0.8 Vmaxpu=1.2 model=1 kW=5.675346369339635 kvar=1.238985226090579 Phases=1 yearly=res_kw_1186_pu

New Load.load_p1ulv2381_1 conn=wye bus1=p1ulv2381.1 kV=0.12 Vminpu=0.8 Vmaxpu=1.2 model=1 kW=2.6241521841182514 kvar=0.8429304779950015 Phases=1 yearly=res_kw_33_pu

New Load.load_p1ulv2381_2 conn=wye bus1=p1ulv2381.2 kV=0.12 Vminpu=0.8 Vmaxpu=1.2 model=1 kW=2.6241521841182514 kvar=0.8429304779950015 Phases=1 yearly=res_kw_33_pu

New Load.load_p1ulv2382_1 conn=wye bus1=p1ulv2382.1 kV=0.12 Vminpu=0.8 Vmaxpu=1.2 model=1 kW=2.3298924011300017 kvar=0.388795313922141 Phases=1 yearly=res_kw_41_pu

New Load.load_p1ulv2382_2 conn=wye bus1=p1ulv2382.2 kV=0.12 Vminpu=0.8 Vmaxpu=1.2 model=1 kW=2.3298924011300017 kvar=0.388795313922141 Phases=1 yearly=res_kw_41_pu

New Load.load_p1ulv2383_1 conn=wye bus1=p1ulv2383.1 kV=0.12 Vminpu=0.8 Vmaxpu=1.2 model=1 kW=2.47170658682663 kvar=0.5373197382437959 Phases=1 yearly=res_kw_39_pu

New Load.load_p1ulv2383_2 conn=wye bus1=p1ulv2383.2 kV=0.12 Vminpu=0.8 Vmaxpu=1.2 model=1 kW=2.47170658682663 kvar=0.5373197382437959 Phases=1 yearly=res_kw_39_pu

New Load.load_p1ulv2384_1 conn=wye bus1=p1ulv2384.1 kV=0.12 Vminpu=0.8 Vmaxpu=1.2 model=1 kW=2.1376631749204993 kvar=0.6218033466021168 Phases=1 yearly=res_kw_93_pu

New Load.load_p1ulv2384_2 conn=wye bus1=p1ulv2384.2 kV=0.12 Vminpu=0.8 Vmaxpu=1.2 model=1 kW=2.1376631749204993 kvar=0.6218033466021168 Phases=1 yearly=res_kw_93_pu

New Load.load_p1ulv2385_1 conn=wye bus1=p1ulv2385.1 kV=0.12 Vminpu=0.8 Vmaxpu=1.2 model=1 kW=8.612390749193064 kvar=1.8058518746416834 Phases=1 yearly=res_kw_1159_pu

New Load.load_p1ulv2385_2 conn=wye bus1=p1ulv2385.2 kV=0.12 Vminpu=0.8 Vmaxpu=1.2 model=1 kW=8.612390749193064 kvar=1.8058518746416834 Phases=1 yearly=res_kw_1159_pu

New Load.load_p1ulv2386_1 conn=wye bus1=p1ulv2386.1 kV=0.12 Vminpu=0.8 Vmaxpu=1.2 model=1 kW=2.605021030189827 kvar=1.0007509371876184 Phases=1 yearly=res_kw_24_pu

New Load.load_p1ulv2386_2 conn=wye bus1=p1ulv2386.2 kV=0.12 Vminpu=0.8 Vmaxpu=1.2 model=1 kW=2.605021030189827 kvar=1.0007509371876184 Phases=1 yearly=res_kw_24_pu

New Load.load_p1ulv2387_1 conn=wye bus1=p1ulv2387.1 kV=0.12 Vminpu=0.8 Vmaxpu=1.2 model=1 kW=2.1376631749204993 kvar=0.6218033466021168 Phases=1 yearly=res_kw_93_pu

New Load.load_p1ulv2387_2 conn=wye bus1=p1ulv2387.2 kV=0.12 Vminpu=0.8 Vmaxpu=1.2 model=1 kW=2.1376631749204993 kvar=0.6218033466021168 Phases=1 yearly=res_kw_93_pu

New Load.load_p1ulv2388_1 conn=wye bus1=p1ulv2388.1 kV=0.12 Vminpu=0.8 Vmaxpu=1.2 model=1 kW=2.605021030189827 kvar=1.0007509371876184 Phases=1 yearly=res_kw_24_pu

New Load.load_p1ulv2388_2 conn=wye bus1=p1ulv2388.2 kV=0.12 Vminpu=0.8 Vmaxpu=1.2 model=1 kW=2.605021030189827 kvar=1.0007509371876184 Phases=1 yearly=res_kw_24_pu

New Load.load_p1ulv2389_1 conn=wye bus1=p1ulv2389.1 kV=0.12 Vminpu=0.8 Vmaxpu=1.2 model=1 kW=2.1376631749204993 kvar=0.6218033466021168 Phases=1 yearly=res_kw_93_pu

New Load.load_p1ulv2389_2 conn=wye bus1=p1ulv2389.2 kV=0.12 Vminpu=0.8 Vmaxpu=1.2 model=1 kW=2.1376631749204993 kvar=0.6218033466021168 Phases=1 yearly=res_kw_93_pu

New Load.load_p1ulv2390_1 conn=wye bus1=p1ulv2390.1 kV=0.12 Vminpu=0.8 Vmaxpu=1.2 model=1 kW=6.46954486905048 kvar=1.5165440515935265 Phases=1 yearly=res_kw_1067_pu

New Load.load_p1ulv2390_2 conn=wye bus1=p1ulv2390.2 kV=0.12 Vminpu=0.8 Vmaxpu=1.2 model=1 kW=6.46954486905048 kvar=1.5165440515935265 Phases=1 yearly=res_kw_1067_pu

New Load.load_p1ulv2391_1 conn=wye bus1=p1ulv2390.1 kV=0.12 Vminpu=0.8 Vmaxpu=1.2 model=1 kW=2.605021030189827 kvar=1.0007509371876184 Phases=1 yearly=res_kw_24_pu

New Load.load_p1ulv2391_2 conn=wye bus1=p1ulv2390.2 kV=0.12 Vminpu=0.8 Vmaxpu=1.2 model=1 kW=2.605021030189827 kvar=1.0007509371876184 Phases=1 yearly=res_kw_24_pu

New Load.load_p1ulv2392_1 conn=wye bus1=p1ulv2392.1 kV=0.12 Vminpu=0.8 Vmaxpu=1.2 model=1 kW=3.3701610259235064 kvar=1.065454990641787 Phases=1 yearly=res_kw_1037_pu

New Load.load_p1ulv2392_2 conn=wye bus1=p1ulv2392.2 kV=0.12 Vminpu=0.8 Vmaxpu=1.2 model=1 kW=3.3701610259235064 kvar=1.065454990641787 Phases=1 yearly=res_kw_1037_pu

New Load.load_p1ulv2393_1 conn=wye bus1=p1ulv2393.1 kV=0.12 Vminpu=0.8 Vmaxpu=1.2 model=1 kW=2.6241521841182514 kvar=0.8429304779950015 Phases=1 yearly=res_kw_33_pu

New Load.load_p1ulv2393_2 conn=wye bus1=p1ulv2393.2 kV=0.12 Vminpu=0.8 Vmaxpu=1.2 model=1 kW=2.6241521841182514 kvar=0.8429304779950015 Phases=1 yearly=res_kw_33_pu

New Load.load_p1ulv2394_1 conn=wye bus1=p1ulv2394.1 kV=0.12 Vminpu=0.8 Vmaxpu=1.2 model=1 kW=4.788649591238137 kvar=1.023651375705972 Phases=1 yearly=res_kw_512_pu

New Load.load_p1ulv2394_2 conn=wye bus1=p1ulv2394.2 kV=0.12 Vminpu=0.8 Vmaxpu=1.2 model=1 kW=4.788649591238137 kvar=1.023651375705972 Phases=1 yearly=res_kw_512_pu

New Load.load_p1ulv2395_1 conn=wye bus1=p1ulv2395.1 kV=0.12 Vminpu=0.8 Vmaxpu=1.2 model=1 kW=2.1376631749204993 kvar=0.6218033466021168 Phases=1 yearly=res_kw_93_pu

New Load.load_p1ulv2395_2 conn=wye bus1=p1ulv2395.2 kV=0.12 Vminpu=0.8 Vmaxpu=1.2 model=1 kW=2.1376631749204993 kvar=0.6218033466021168 Phases=1 yearly=res_kw_93_pu

New Load.load_p1ulv2396_1 conn=wye bus1=p1ulv2396.1 kV=0.12 Vminpu=0.8 Vmaxpu=1.2 model=1 kW=2.6241521841182514 kvar=0.8429304779950015 Phases=1 yearly=res_kw_33_pu

New Load.load_p1ulv2396_2 conn=wye bus1=p1ulv2396.2 kV=0.12 Vminpu=0.8 Vmaxpu=1.2 model=1 kW=2.6241521841182514 kvar=0.8429304779950015 Phases=1 yearly=res_kw_33_pu

New Load.load_p1ulv2397_1 conn=wye bus1=p1ulv2397.1 kV=0.12 Vminpu=0.8 Vmaxpu=1.2 model=1 kW=2.623267981089487 kvar=1.212519304398851 Phases=1 yearly=res_kw_452_pu

New Load.load_p1ulv2397_2 conn=wye bus1=p1ulv2397.2 kV=0.12 Vminpu=0.8 Vmaxpu=1.2 model=1 kW=2.623267981089487 kvar=1.212519304398851 Phases=1 yearly=res_kw_452_pu

New Load.load_p1ulv2398_1 conn=wye bus1=p1ulv2398.1 kV=0.12 Vminpu=0.8 Vmaxpu=1.2 model=1 kW=1.1999161251108437 kvar=0.46029278685869546 Phases=1 yearly=res_kw_829_pu

New Load.load_p1ulv2398_2 conn=wye bus1=p1ulv2398.2 kV=0.12 Vminpu=0.8 Vmaxpu=1.2 model=1 kW=1.1999161251108437 kvar=0.46029278685869546 Phases=1 yearly=res_kw_829_pu

New Load.load_p1ulv2399_1 conn=wye bus1=p1ulv2399.1 kV=0.12 Vminpu=0.8 Vmaxpu=1.2 model=1 kW=1.7932717143582468 kvar=0.4137486634368157 Phases=1 yearly=res_kw_931_pu

New Load.load_p1ulv2399_2 conn=wye bus1=p1ulv2399.2 kV=0.12 Vminpu=0.8 Vmaxpu=1.2 model=1 kW=1.7932717143582468 kvar=0.4137486634368157 Phases=1 yearly=res_kw_931_pu

New Load.load_p1ulv2400_1 conn=wye bus1=p1ulv2400.1 kV=0.12 Vminpu=0.8 Vmaxpu=1.2 model=1 kW=0.8155215330625105 kvar=0.30217793028689777 Phases=1 yearly=res_kw_1270_pu

New Load.load_p1ulv2400_2 conn=wye bus1=p1ulv2400.2 kV=0.12 Vminpu=0.8 Vmaxpu=1.2 model=1 kW=0.8155215330625105 kvar=0.30217793028689777 Phases=1 yearly=res_kw_1270_pu

New Load.load_p1ulv2401_1 conn=wye bus1=p1ulv2401.1 kV=0.12 Vminpu=0.8 Vmaxpu=1.2 model=1 kW=2.6241521841182514 kvar=0.8429304779950015 Phases=1 yearly=res_kw_33_pu

New Load.load_p1ulv2401_2 conn=wye bus1=p1ulv2401.2 kV=0.12 Vminpu=0.8 Vmaxpu=1.2 model=1 kW=2.6241521841182514 kvar=0.8429304779950015 Phases=1 yearly=res_kw_33_pu

New Load.load_p1ulv2402_1 conn=wye bus1=p1ulv2402.1 kV=0.12 Vminpu=0.8 Vmaxpu=1.2 model=1 kW=0.8155215330625105 kvar=0.30217793028689777 Phases=1 yearly=res_kw_1270_pu

New Load.load_p1ulv2402_2 conn=wye bus1=p1ulv2402.2 kV=0.12 Vminpu=0.8 Vmaxpu=1.2 model=1 kW=0.8155215330625105 kvar=0.30217793028689777 Phases=1 yearly=res_kw_1270_pu

New Load.load_p1ulv2403_1 conn=wye bus1=p1ulv2403.1 kV=0.12 Vminpu=0.8 Vmaxpu=1.2 model=1 kW=2.623267981089487 kvar=1.212519304398851 Phases=1 yearly=res_kw_452_pu

New Load.load_p1ulv2403_2 conn=wye bus1=p1ulv2403.2 kV=0.12 Vminpu=0.8 Vmaxpu=1.2 model=1 kW=2.623267981089487 kvar=1.212519304398851 Phases=1 yearly=res_kw_452_pu

New Load.load_p1ulv2404_1 conn=wye bus1=p1ulv2404.1 kV=0.12 Vminpu=0.8 Vmaxpu=1.2 model=1 kW=2.605021030189827 kvar=1.0007509371876184 Phases=1 yearly=res_kw_24_pu

New Load.load_p1ulv2404_2 conn=wye bus1=p1ulv2404.2 kV=0.12 Vminpu=0.8 Vmaxpu=1.2 model=1 kW=2.605021030189827 kvar=1.0007509371876184 Phases=1 yearly=res_kw_24_pu

New Load.load_p1ulv2405_1 conn=wye bus1=p1ulv2405.1 kV=0.12 Vminpu=0.8 Vmaxpu=1.2 model=1 kW=3.469521951913567 kvar=0.9490620687569232 Phases=1 yearly=res_kw_825_pu

New Load.load_p1ulv2405_2 conn=wye bus1=p1ulv2405.2 kV=0.12 Vminpu=0.8 Vmaxpu=1.2 model=1 kW=3.469521951913567 kvar=0.9490620687569232 Phases=1 yearly=res_kw_825_pu

New Load.load_p1ulv2406_1 conn=wye bus1=p1ulv2406.1 kV=0.12 Vminpu=0.8 Vmaxpu=1.2 model=1 kW=13.251431311430247 kvar=0.1493407165487586 Phases=1 yearly=com_kw_14976_pu

New Load.load_p1ulv2406_2 conn=wye bus1=p1ulv2406.2 kV=0.12 Vminpu=0.8 Vmaxpu=1.2 model=1 kW=13.251431311430247 kvar=0.1493407165487586 Phases=1 yearly=com_kw_14976_pu

New Load.load_p1ulv2407_1 conn=wye bus1=p1ulv2407.1 kV=0.12 Vminpu=0.8 Vmaxpu=1.2 model=1 kW=1.8914832317680952 kvar=0.4701288429802831 Phases=1 yearly=com_kw_13018_pu

New Load.load_p1ulv2407_2 conn=wye bus1=p1ulv2407.2 kV=0.12 Vminpu=0.8 Vmaxpu=1.2 model=1 kW=1.8914832317680952 kvar=0.4701288429802831 Phases=1 yearly=com_kw_13018_pu

New Load.load_p1ulv2408_1 conn=wye bus1=p1ulv2408.1 kV=0.12 Vminpu=0.8 Vmaxpu=1.2 model=1 kW=1.8914832317680952 kvar=0.4701288429802831 Phases=1 yearly=com_kw_13018_pu

New Load.load_p1ulv2408_2 conn=wye bus1=p1ulv2408.2 kV=0.12 Vminpu=0.8 Vmaxpu=1.2 model=1 kW=1.8914832317680952 kvar=0.4701288429802831 Phases=1 yearly=com_kw_13018_pu

New Load.load_p1ulv2409_1 conn=wye bus1=p1ulv2409.1 kV=0.12 Vminpu=0.8 Vmaxpu=1.2 model=1 kW=1.8914832317680952 kvar=0.4701288429802831 Phases=1 yearly=com_kw_13018_pu

New Load.load_p1ulv2409_2 conn=wye bus1=p1ulv2409.2 kV=0.12 Vminpu=0.8 Vmaxpu=1.2 model=1 kW=1.8914832317680952 kvar=0.4701288429802831 Phases=1 yearly=com_kw_13018_pu

New Load.load_p1ulv2410_1 conn=wye bus1=p1ulv2410.1 kV=0.12 Vminpu=0.8 Vmaxpu=1.2 model=1 kW=1.8914832317680952 kvar=0.4701288429802831 Phases=1 yearly=com_kw_13018_pu

New Load.load_p1ulv2410_2 conn=wye bus1=p1ulv2410.2 kV=0.12 Vminpu=0.8 Vmaxpu=1.2 model=1 kW=1.8914832317680952 kvar=0.4701288429802831 Phases=1 yearly=com_kw_13018_pu

New Load.load_p1ulv2411_1 conn=wye bus1=p1ulv2411.1 kV=0.12 Vminpu=0.8 Vmaxpu=1.2 model=1 kW=1.8914832317680952 kvar=0.4701288429802831 Phases=1 yearly=com_kw_13018_pu

New Load.load_p1ulv2411_2 conn=wye bus1=p1ulv2411.2 kV=0.12 Vminpu=0.8 Vmaxpu=1.2 model=1 kW=1.8914832317680952 kvar=0.4701288429802831 Phases=1 yearly=com_kw_13018_pu

New Load.load_p1ulv2412_1 conn=wye bus1=p1ulv2412.1 kV=0.12 Vminpu=0.8 Vmaxpu=1.2 model=1 kW=1.8914832317680952 kvar=0.4701288429802831 Phases=1 yearly=com_kw_13018_pu

New Load.load_p1ulv2412_2 conn=wye bus1=p1ulv2412.2 kV=0.12 Vminpu=0.8 Vmaxpu=1.2 model=1 kW=1.8914832317680952 kvar=0.4701288429802831 Phases=1 yearly=com_kw_13018_pu

New Load.load_p1ulv2413_1 conn=wye bus1=p1ulv2413.1 kV=0.12 Vminpu=0.8 Vmaxpu=1.2 model=1 kW=1.8914832317680952 kvar=0.4701288429802831 Phases=1 yearly=com_kw_13018_pu

New Load.load_p1ulv2413_2 conn=wye bus1=p1ulv2413.2 kV=0.12 Vminpu=0.8 Vmaxpu=1.2 model=1 kW=1.8914832317680952 kvar=0.4701288429802831 Phases=1 yearly=com_kw_13018_pu

New Load.load_p1ulv2414_1 conn=wye bus1=p1ulv2414.1 kV=0.12 Vminpu=0.8 Vmaxpu=1.2 model=1 kW=1.8914832317680952 kvar=0.4701288429802831 Phases=1 yearly=com_kw_13018_pu

New Load.load_p1ulv2414_2 conn=wye bus1=p1ulv2414.2 kV=0.12 Vminpu=0.8 Vmaxpu=1.2 model=1 kW=1.8914832317680952 kvar=0.4701288429802831 Phases=1 yearly=com_kw_13018_pu

New Load.load_p1ulv2415_1 conn=wye bus1=p1ulv2415.1 kV=0.12 Vminpu=0.8 Vmaxpu=1.2 model=1 kW=1.8914832317680952 kvar=0.4701288429802831 Phases=1 yearly=com_kw_13018_pu

New Load.load_p1ulv2415_2 conn=wye bus1=p1ulv2415.2 kV=0.12 Vminpu=0.8 Vmaxpu=1.2 model=1 kW=1.8914832317680952 kvar=0.4701288429802831 Phases=1 yearly=com_kw_13018_pu

New Load.load_p1ulv2416_1 conn=wye bus1=p1ulv2416.1 kV=0.12 Vminpu=0.8 Vmaxpu=1.2 model=1 kW=1.8914832317680952 kvar=0.4701288429802831 Phases=1 yearly=com_kw_13018_pu

New Load.load_p1ulv2416_2 conn=wye bus1=p1ulv2416.2 kV=0.12 Vminpu=0.8 Vmaxpu=1.2 model=1 kW=1.8914832317680952 kvar=0.4701288429802831 Phases=1 yearly=com_kw_13018_pu

New Load.load_p1ulv2417_1 conn=wye bus1=p1ulv2416.1 kV=0.12 Vminpu=0.8 Vmaxpu=1.2 model=1 kW=1.8914832317680952 kvar=0.4701288429802831 Phases=1 yearly=com_kw_13018_pu

New Load.load_p1ulv2417_2 conn=wye bus1=p1ulv2416.2 kV=0.12 Vminpu=0.8 Vmaxpu=1.2 model=1 kW=1.8914832317680952 kvar=0.4701288429802831 Phases=1 yearly=com_kw_13018_pu

New Load.load_p1ulv2418_1 conn=wye bus1=p1ulv2418.1 kV=0.12 Vminpu=0.8 Vmaxpu=1.2 model=1 kW=1.8914832317680952 kvar=0.4701288429802831 Phases=1 yearly=com_kw_13018_pu

New Load.load_p1ulv2418_2 conn=wye bus1=p1ulv2418.2 kV=0.12 Vminpu=0.8 Vmaxpu=1.2 model=1 kW=1.8914832317680952 kvar=0.4701288429802831 Phases=1 yearly=com_kw_13018_pu

New Load.load_p1ulv2419_1 conn=wye bus1=p1ulv2419.1 kV=0.12 Vminpu=0.8 Vmaxpu=1.2 model=1 kW=13.251431311430247 kvar=0.1493407165487586 Phases=1 yearly=com_kw_14976_pu

New Load.load_p1ulv2419_2 conn=wye bus1=p1ulv2419.2 kV=0.12 Vminpu=0.8 Vmaxpu=1.2 model=1 kW=13.251431311430247 kvar=0.1493407165487586 Phases=1 yearly=com_kw_14976_pu

New Load.load_p1ulv2420_1 conn=wye bus1=p1ulv2420.1 kV=0.12 Vminpu=0.8 Vmaxpu=1.2 model=1 kW=1.8914832317680952 kvar=0.4701288429802831 Phases=1 yearly=com_kw_13018_pu

New Load.load_p1ulv2420_2 conn=wye bus1=p1ulv2420.2 kV=0.12 Vminpu=0.8 Vmaxpu=1.2 model=1 kW=1.8914832317680952 kvar=0.4701288429802831 Phases=1 yearly=com_kw_13018_pu

New Load.load_p1ulv2421_1 conn=wye bus1=p1ulv2421.1 kV=0.12 Vminpu=0.8 Vmaxpu=1.2 model=1 kW=1.8914832317680952 kvar=0.4701288429802831 Phases=1 yearly=com_kw_13018_pu

New Load.load_p1ulv2421_2 conn=wye bus1=p1ulv2421.2 kV=0.12 Vminpu=0.8 Vmaxpu=1.2 model=1 kW=1.8914832317680952 kvar=0.4701288429802831 Phases=1 yearly=com_kw_13018_pu

New Load.load_p1ulv2422_1 conn=wye bus1=p1ulv2421.1 kV=0.12 Vminpu=0.8 Vmaxpu=1.2 model=1 kW=2.3846609446068823 kvar=0.7423017332736356 Phases=1 yearly=com_kw_14117_pu

New Load.load_p1ulv2422_2 conn=wye bus1=p1ulv2421.2 kV=0.12 Vminpu=0.8 Vmaxpu=1.2 model=1 kW=2.3846609446068823 kvar=0.7423017332736356 Phases=1 yearly=com_kw_14117_pu

New Load.load_p1ulv2423_1 conn=wye bus1=p1ulv2423.1 kV=0.12 Vminpu=0.8 Vmaxpu=1.2 model=1 kW=1.8914832317680952 kvar=0.4701288429802831 Phases=1 yearly=com_kw_13018_pu

New Load.load_p1ulv2423_2 conn=wye bus1=p1ulv2423.2 kV=0.12 Vminpu=0.8 Vmaxpu=1.2 model=1 kW=1.8914832317680952 kvar=0.4701288429802831 Phases=1 yearly=com_kw_13018_pu

New Load.load_p1ulv2424_1 conn=wye bus1=p1ulv2424.1 kV=0.12 Vminpu=0.8 Vmaxpu=1.2 model=1 kW=2.3448408768561366 kvar=0.6799254266592899 Phases=1 yearly=com_kw_13661_pu

New Load.load_p1ulv2424_2 conn=wye bus1=p1ulv2424.2 kV=0.12 Vminpu=0.8 Vmaxpu=1.2 model=1 kW=2.3448408768561366 kvar=0.6799254266592899 Phases=1 yearly=com_kw_13661_pu

New Load.load_p1ulv2425_1 conn=wye bus1=p1ulv2424.1 kV=0.12 Vminpu=0.8 Vmaxpu=1.2 model=1 kW=1.8914832317680952 kvar=0.4701288429802831 Phases=1 yearly=com_kw_13018_pu

New Load.load_p1ulv2425_2 conn=wye bus1=p1ulv2424.2 kV=0.12 Vminpu=0.8 Vmaxpu=1.2 model=1 kW=1.8914832317680952 kvar=0.4701288429802831 Phases=1 yearly=com_kw_13018_pu

New Load.load_p1ulv2426_1 conn=wye bus1=p1ulv2426.1 kV=0.12 Vminpu=0.8 Vmaxpu=1.2 model=1 kW=1.8914832317680952 kvar=0.4701288429802831 Phases=1 yearly=com_kw_13018_pu

New Load.load_p1ulv2426_2 conn=wye bus1=p1ulv2426.2 kV=0.12 Vminpu=0.8 Vmaxpu=1.2 model=1 kW=1.8914832317680952 kvar=0.4701288429802831 Phases=1 yearly=com_kw_13018_pu

New Load.load_p1ulv2427_1 conn=wye bus1=p1ulv2427.1 kV=0.12 Vminpu=0.8 Vmaxpu=1.2 model=1 kW=4.317921618919005 kvar=0.17704568465273218 Phases=1 yearly=com_kw_12941_pu

New Load.load_p1ulv2427_2 conn=wye bus1=p1ulv2427.2 kV=0.12 Vminpu=0.8 Vmaxpu=1.2 model=1 kW=4.317921618919005 kvar=0.17704568465273218 Phases=1 yearly=com_kw_12941_pu

New Load.load_p1ulv2428_1 conn=wye bus1=p1ulv2428.1 kV=0.12 Vminpu=0.8 Vmaxpu=1.2 model=1 kW=1.8914832317680952 kvar=0.4701288429802831 Phases=1 yearly=com_kw_13018_pu

New Load.load_p1ulv2428_2 conn=wye bus1=p1ulv2428.2 kV=0.12 Vminpu=0.8 Vmaxpu=1.2 model=1 kW=1.8914832317680952 kvar=0.4701288429802831 Phases=1 yearly=com_kw_13018_pu

New Load.load_p1ulv2429_1 conn=wye bus1=p1ulv2429.1 kV=0.12 Vminpu=0.8 Vmaxpu=1.2 model=1 kW=5.2342602505249465 kvar=0.03192958905801793 Phases=1 yearly=com_kw_13109_pu

New Load.load_p1ulv2429_2 conn=wye bus1=p1ulv2429.2 kV=0.12 Vminpu=0.8 Vmaxpu=1.2 model=1 kW=5.2342602505249465 kvar=0.03192958905801793 Phases=1 yearly=com_kw_13109_pu

New Load.load_p1ulv2430_1 conn=wye bus1=p1ulv2430.1 kV=0.12 Vminpu=0.8 Vmaxpu=1.2 model=1 kW=13.251431311430247 kvar=0.1493407165487586 Phases=1 yearly=com_kw_14976_pu

New Load.load_p1ulv2430_2 conn=wye bus1=p1ulv2430.2 kV=0.12 Vminpu=0.8 Vmaxpu=1.2 model=1 kW=13.251431311430247 kvar=0.1493407165487586 Phases=1 yearly=com_kw_14976_pu
