New Load.load_p1ulv822_1 conn=wye bus1=p1ulv822.1 kV=0.12 Vminpu=0.8 Vmaxpu=1.2 model=1 kW=5.991917116566147 kvar=1.6692124001399427 Phases=1 yearly=res_kw_314_pu

New Load.load_p1ulv822_2 conn=wye bus1=p1ulv822.2 kV=0.12 Vminpu=0.8 Vmaxpu=1.2 model=1 kW=5.991917116566147 kvar=1.6692124001399427 Phases=1 yearly=res_kw_314_pu

New Load.load_p1ulv902_1 conn=wye bus1=p1ulv902.1 kV=0.12 Vminpu=0.8 Vmaxpu=1.2 model=1 kW=3.963001053413761 kvar=0.9410786890170905 Phases=1 yearly=res_kw_1256_pu

New Load.load_p1ulv902_2 conn=wye bus1=p1ulv902.2 kV=0.12 Vminpu=0.8 Vmaxpu=1.2 model=1 kW=3.963001053413761 kvar=0.9410786890170905 Phases=1 yearly=res_kw_1256_pu

New Load.load_p1ulv903_1 conn=wye bus1=p1ulv903.1 kV=0.12 Vminpu=0.8 Vmaxpu=1.2 model=1 kW=5.840853226378247 kvar=1.1903019185873431 Phases=1 yearly=res_kw_892_pu

New Load.load_p1ulv903_2 conn=wye bus1=p1ulv903.2 kV=0.12 Vminpu=0.8 Vmaxpu=1.2 model=1 kW=5.840853226378247 kvar=1.1903019185873431 Phases=1 yearly=res_kw_892_pu

New Load.load_p1ulv904_1 conn=wye bus1=p1ulv904.1 kV=0.12 Vminpu=0.8 Vmaxpu=1.2 model=1 kW=5.574466357705123 kvar=1.0791692562247137 Phases=1 yearly=res_kw_1083_pu

New Load.load_p1ulv904_2 conn=wye bus1=p1ulv904.2 kV=0.12 Vminpu=0.8 Vmaxpu=1.2 model=1 kW=5.574466357705123 kvar=1.0791692562247137 Phases=1 yearly=res_kw_1083_pu

New Load.load_p1ulv905_1 conn=wye bus1=p1ulv905.1 kV=0.12 Vminpu=0.8 Vmaxpu=1.2 model=1 kW=5.947053638705014 kvar=1.2332751328813323 Phases=1 yearly=res_kw_245_pu

New Load.load_p1ulv905_2 conn=wye bus1=p1ulv905.2 kV=0.12 Vminpu=0.8 Vmaxpu=1.2 model=1 kW=5.947053638705014 kvar=1.2332751328813323 Phases=1 yearly=res_kw_245_pu

New Load.load_p1ulv906_1 conn=wye bus1=p1ulv906.1 kV=0.12 Vminpu=0.8 Vmaxpu=1.2 model=1 kW=11.457721527492426 kvar=1.3801854390555242 Phases=1 yearly=res_kw_861_pu

New Load.load_p1ulv906_2 conn=wye bus1=p1ulv906.2 kV=0.12 Vminpu=0.8 Vmaxpu=1.2 model=1 kW=11.457721527492426 kvar=1.3801854390555242 Phases=1 yearly=res_kw_861_pu

New Load.load_p1ulv907_1 conn=wye bus1=p1ulv907.1 kV=0.12 Vminpu=0.8 Vmaxpu=1.2 model=1 kW=8.1643981028744 kvar=1.644547786200018 Phases=1 yearly=res_kw_188_pu

New Load.load_p1ulv907_2 conn=wye bus1=p1ulv907.2 kV=0.12 Vminpu=0.8 Vmaxpu=1.2 model=1 kW=8.1643981028744 kvar=1.644547786200018 Phases=1 yearly=res_kw_188_pu

New Load.load_p1ulv908_1 conn=wye bus1=p1ulv908.1 kV=0.12 Vminpu=0.8 Vmaxpu=1.2 model=1 kW=2.7664101287786207 kvar=0.5107617929457463 Phases=1 yearly=res_kw_116_pu

New Load.load_p1ulv908_2 conn=wye bus1=p1ulv908.2 kV=0.12 Vminpu=0.8 Vmaxpu=1.2 model=1 kW=2.7664101287786207 kvar=0.5107617929457463 Phases=1 yearly=res_kw_116_pu

New Load.load_p1ulv909_1 conn=wye bus1=p1ulv909.1 kV=0.12 Vminpu=0.8 Vmaxpu=1.2 model=1 kW=3.789884331965197 kvar=1.0036576715582408 Phases=1 yearly=res_kw_670_pu

New Load.load_p1ulv909_2 conn=wye bus1=p1ulv909.2 kV=0.12 Vminpu=0.8 Vmaxpu=1.2 model=1 kW=3.789884331965197 kvar=1.0036576715582408 Phases=1 yearly=res_kw_670_pu

New Load.load_p1ulv910 conn=wye bus1=p1ulv910.1.2.3 kV=0.48 Vminpu=0.8 Vmaxpu=1.2 model=1 kW=31.56390894948716 kvar=5.59016195527881 Phases=3 yearly=res_kw_76_pu

New Load.load_p1ulv911_1 conn=wye bus1=p1ulv911.1 kV=0.12 Vminpu=0.8 Vmaxpu=1.2 model=1 kW=3.469755020859998 kvar=0.8941520384931253 Phases=1 yearly=res_kw_4_pu

New Load.load_p1ulv911_2 conn=wye bus1=p1ulv911.2 kV=0.12 Vminpu=0.8 Vmaxpu=1.2 model=1 kW=3.469755020859998 kvar=0.8941520384931253 Phases=1 yearly=res_kw_4_pu

New Load.load_p1ulv912_1 conn=wye bus1=p1ulv912.1 kV=0.12 Vminpu=0.8 Vmaxpu=1.2 model=1 kW=2.916803644387601 kvar=0.11499518252231355 Phases=1 yearly=res_kw_1094_pu

New Load.load_p1ulv912_2 conn=wye bus1=p1ulv912.2 kV=0.12 Vminpu=0.8 Vmaxpu=1.2 model=1 kW=2.916803644387601 kvar=0.11499518252231355 Phases=1 yearly=res_kw_1094_pu

New Load.load_p1ulv913 conn=wye bus1=p1ulv913.1.2.3 kV=0.48 Vminpu=0.8 Vmaxpu=1.2 model=1 kW=43.27018967162994 kvar=8.821343441318042 Phases=3 yearly=res_kw_916_pu

New Load.load_p1ulv914_1 conn=wye bus1=p1ulv914.1 kV=0.12 Vminpu=0.8 Vmaxpu=1.2 model=1 kW=6.136100367362728 kvar=1.4521187609701354 Phases=1 yearly=res_kw_362_pu

New Load.load_p1ulv914_2 conn=wye bus1=p1ulv914.2 kV=0.12 Vminpu=0.8 Vmaxpu=1.2 model=1 kW=6.136100367362728 kvar=1.4521187609701354 Phases=1 yearly=res_kw_362_pu

New Load.load_p1ulv915_1 conn=wye bus1=p1ulv915.1 kV=0.12 Vminpu=0.8 Vmaxpu=1.2 model=1 kW=7.259772519581312 kvar=1.3210086815250959 Phases=1 yearly=res_kw_128_pu

New Load.load_p1ulv915_2 conn=wye bus1=p1ulv915.2 kV=0.12 Vminpu=0.8 Vmaxpu=1.2 model=1 kW=7.259772519581312 kvar=1.3210086815250959 Phases=1 yearly=res_kw_128_pu

New Load.load_p1ulv916_1 conn=wye bus1=p1ulv916.1 kV=0.12 Vminpu=0.8 Vmaxpu=1.2 model=1 kW=14.404204781856079 kvar=3.036808033672637 Phases=1 yearly=res_kw_560_pu

New Load.load_p1ulv916_2 conn=wye bus1=p1ulv916.2 kV=0.12 Vminpu=0.8 Vmaxpu=1.2 model=1 kW=14.404204781856079 kvar=3.036808033672637 Phases=1 yearly=res_kw_560_pu

New Load.load_p1ulv917_1 conn=wye bus1=p1ulv917.1 kV=0.12 Vminpu=0.8 Vmaxpu=1.2 model=1 kW=6.781528157055726 kvar=1.3939212369369844 Phases=1 yearly=res_kw_548_pu

New Load.load_p1ulv917_2 conn=wye bus1=p1ulv917.2 kV=0.12 Vminpu=0.8 Vmaxpu=1.2 model=1 kW=6.781528157055726 kvar=1.3939212369369844 Phases=1 yearly=res_kw_548_pu

New Load.load_p1ulv918_1 conn=wye bus1=p1ulv918.1 kV=0.12 Vminpu=0.8 Vmaxpu=1.2 model=1 kW=9.666699253995569 kvar=2.090221480167897 Phases=1 yearly=res_kw_46_pu

New Load.load_p1ulv918_2 conn=wye bus1=p1ulv918.2 kV=0.12 Vminpu=0.8 Vmaxpu=1.2 model=1 kW=9.666699253995569 kvar=2.090221480167897 Phases=1 yearly=res_kw_46_pu

New Load.load_p1ulv919_1 conn=wye bus1=p1ulv919.1 kV=0.12 Vminpu=0.8 Vmaxpu=1.2 model=1 kW=7.7578735794910925 kvar=1.9049941012910125 Phases=1 yearly=res_kw_863_pu

New Load.load_p1ulv919_2 conn=wye bus1=p1ulv919.2 kV=0.12 Vminpu=0.8 Vmaxpu=1.2 model=1 kW=7.7578735794910925 kvar=1.9049941012910125 Phases=1 yearly=res_kw_863_pu

New Load.load_p1ulv920_1 conn=wye bus1=p1ulv920.1 kV=0.12 Vminpu=0.8 Vmaxpu=1.2 model=1 kW=4.889402611994926 kvar=1.0559288347164948 Phases=1 yearly=res_kw_1160_pu

New Load.load_p1ulv920_2 conn=wye bus1=p1ulv920.2 kV=0.12 Vminpu=0.8 Vmaxpu=1.2 model=1 kW=4.889402611994926 kvar=1.0559288347164948 Phases=1 yearly=res_kw_1160_pu

New Load.load_p1ulv921_1 conn=wye bus1=p1ulv921.1 kV=0.12 Vminpu=0.8 Vmaxpu=1.2 model=1 kW=5.675346369339635 kvar=1.238985226090579 Phases=1 yearly=res_kw_1186_pu

New Load.load_p1ulv921_2 conn=wye bus1=p1ulv921.2 kV=0.12 Vminpu=0.8 Vmaxpu=1.2 model=1 kW=5.675346369339635 kvar=1.238985226090579 Phases=1 yearly=res_kw_1186_pu

New Load.load_p1ulv922_1 conn=wye bus1=p1ulv922.1 kV=0.12 Vminpu=0.8 Vmaxpu=1.2 model=1 kW=9.666699253995569 kvar=2.090221480167897 Phases=1 yearly=res_kw_46_pu

New Load.load_p1ulv922_2 conn=wye bus1=p1ulv922.2 kV=0.12 Vminpu=0.8 Vmaxpu=1.2 model=1 kW=9.666699253995569 kvar=2.090221480167897 Phases=1 yearly=res_kw_46_pu

New Load.load_p1ulv923_1 conn=wye bus1=p1ulv923.1 kV=0.12 Vminpu=0.8 Vmaxpu=1.2 model=1 kW=7.39003079607701 kvar=1.1459998105911195 Phases=1 yearly=res_kw_967_pu

New Load.load_p1ulv923_2 conn=wye bus1=p1ulv923.2 kV=0.12 Vminpu=0.8 Vmaxpu=1.2 model=1 kW=7.39003079607701 kvar=1.1459998105911195 Phases=1 yearly=res_kw_967_pu

New Load.load_p1ulv924_1 conn=wye bus1=p1ulv924.1 kV=0.12 Vminpu=0.8 Vmaxpu=1.2 model=1 kW=7.04256695844029 kvar=1.659740351203588 Phases=1 yearly=res_kw_707_pu

New Load.load_p1ulv924_2 conn=wye bus1=p1ulv924.2 kV=0.12 Vminpu=0.8 Vmaxpu=1.2 model=1 kW=7.04256695844029 kvar=1.659740351203588 Phases=1 yearly=res_kw_707_pu

New Load.load_p1ulv925_1 conn=wye bus1=p1ulv925.1 kV=0.12 Vminpu=0.8 Vmaxpu=1.2 model=1 kW=9.591249211904968 kvar=2.0347748075499026 Phases=1 yearly=res_kw_319_pu

New Load.load_p1ulv925_2 conn=wye bus1=p1ulv925.2 kV=0.12 Vminpu=0.8 Vmaxpu=1.2 model=1 kW=9.591249211904968 kvar=2.0347748075499026 Phases=1 yearly=res_kw_319_pu

New Load.load_p1ulv926_1 conn=wye bus1=p1ulv926.1 kV=0.12 Vminpu=0.8 Vmaxpu=1.2 model=1 kW=4.788649591238137 kvar=1.023651375705972 Phases=1 yearly=res_kw_512_pu

New Load.load_p1ulv926_2 conn=wye bus1=p1ulv926.2 kV=0.12 Vminpu=0.8 Vmaxpu=1.2 model=1 kW=4.788649591238137 kvar=1.023651375705972 Phases=1 yearly=res_kw_512_pu

New Load.load_p1ulv927_1 conn=wye bus1=p1ulv927.1 kV=0.12 Vminpu=0.8 Vmaxpu=1.2 model=1 kW=2.456740089175818 kvar=0.4991709793701422 Phases=1 yearly=res_kw_331_pu

New Load.load_p1ulv927_2 conn=wye bus1=p1ulv927.2 kV=0.12 Vminpu=0.8 Vmaxpu=1.2 model=1 kW=2.456740089175818 kvar=0.4991709793701422 Phases=1 yearly=res_kw_331_pu

New Load.load_p1ulv928_1 conn=wye bus1=p1ulv928.1 kV=0.12 Vminpu=0.8 Vmaxpu=1.2 model=1 kW=3.3701610259235064 kvar=1.065454990641787 Phases=1 yearly=res_kw_1037_pu

New Load.load_p1ulv928_2 conn=wye bus1=p1ulv928.2 kV=0.12 Vminpu=0.8 Vmaxpu=1.2 model=1 kW=3.3701610259235064 kvar=1.065454990641787 Phases=1 yearly=res_kw_1037_pu

New Load.load_p1ulv929 conn=wye bus1=p1ulv929.1.2.3 kV=0.48 Vminpu=0.8 Vmaxpu=1.2 model=1 kW=43.69867821620363 kvar=6.177113536060882 Phases=3 yearly=com_kw_13196_pu

New Load.load_p1ulv930 conn=wye bus1=p1ulv930.1.2.3 kV=0.48 Vminpu=0.8 Vmaxpu=1.2 model=1 kW=29.06847666053555 kvar=5.848529560450256 Phases=3 yearly=com_kw_14619_pu

New Load.load_p1ulv931_1 conn=wye bus1=p1ulv931.1 kV=0.12 Vminpu=0.8 Vmaxpu=1.2 model=1 kW=7.820072877358693 kvar=1.759853089528969 Phases=1 yearly=res_kw_97_pu

New Load.load_p1ulv931_2 conn=wye bus1=p1ulv931.2 kV=0.12 Vminpu=0.8 Vmaxpu=1.2 model=1 kW=7.820072877358693 kvar=1.759853089528969 Phases=1 yearly=res_kw_97_pu

New Load.load_p1ulv932_1 conn=wye bus1=p1ulv932.1 kV=0.12 Vminpu=0.8 Vmaxpu=1.2 model=1 kW=4.760442075087689 kvar=1.0766161551105315 Phases=1 yearly=res_kw_807_pu

New Load.load_p1ulv932_2 conn=wye bus1=p1ulv932.2 kV=0.12 Vminpu=0.8 Vmaxpu=1.2 model=1 kW=4.760442075087689 kvar=1.0766161551105315 Phases=1 yearly=res_kw_807_pu

New Load.load_p1ulv933_1 conn=wye bus1=p1ulv933.1 kV=0.12 Vminpu=0.8 Vmaxpu=1.2 model=1 kW=4.198936522204728 kvar=0.9501139000968819 Phases=1 yearly=res_kw_229_pu

New Load.load_p1ulv933_2 conn=wye bus1=p1ulv933.2 kV=0.12 Vminpu=0.8 Vmaxpu=1.2 model=1 kW=4.198936522204728 kvar=0.9501139000968819 Phases=1 yearly=res_kw_229_pu

New Load.load_p1ulv934_1 conn=wye bus1=p1ulv934.1 kV=0.12 Vminpu=0.8 Vmaxpu=1.2 model=1 kW=3.3641909207712115 kvar=0.9284266244461494 Phases=1 yearly=res_kw_523_pu

New Load.load_p1ulv934_2 conn=wye bus1=p1ulv934.2 kV=0.12 Vminpu=0.8 Vmaxpu=1.2 model=1 kW=3.3641909207712115 kvar=0.9284266244461494 Phases=1 yearly=res_kw_523_pu

New Load.load_p1ulv935_1 conn=wye bus1=p1ulv935.1 kV=0.12 Vminpu=0.8 Vmaxpu=1.2 model=1 kW=4.666080754031652 kvar=0.9704814918535188 Phases=1 yearly=res_kw_280_pu

New Load.load_p1ulv935_2 conn=wye bus1=p1ulv935.2 kV=0.12 Vminpu=0.8 Vmaxpu=1.2 model=1 kW=4.666080754031652 kvar=0.9704814918535188 Phases=1 yearly=res_kw_280_pu

New Load.load_p1ulv936_1 conn=wye bus1=p1ulv936.1 kV=0.12 Vminpu=0.8 Vmaxpu=1.2 model=1 kW=4.666080754031652 kvar=0.9704814918535188 Phases=1 yearly=res_kw_280_pu

New Load.load_p1ulv936_2 conn=wye bus1=p1ulv936.2 kV=0.12 Vminpu=0.8 Vmaxpu=1.2 model=1 kW=4.666080754031652 kvar=0.9704814918535188 Phases=1 yearly=res_kw_280_pu

New Load.load_p1ulv937_1 conn=wye bus1=p1ulv937.1 kV=0.12 Vminpu=0.8 Vmaxpu=1.2 model=1 kW=5.077964450618387 kvar=1.0236236527709202 Phases=1 yearly=res_kw_283_pu

New Load.load_p1ulv937_2 conn=wye bus1=p1ulv937.2 kV=0.12 Vminpu=0.8 Vmaxpu=1.2 model=1 kW=5.077964450618387 kvar=1.0236236527709202 Phases=1 yearly=res_kw_283_pu

New Load.load_p1ulv938_1 conn=wye bus1=p1ulv938.1 kV=0.12 Vminpu=0.8 Vmaxpu=1.2 model=1 kW=6.495867403886884 kvar=1.0074089308244782 Phases=1 yearly=res_kw_597_pu

New Load.load_p1ulv938_2 conn=wye bus1=p1ulv938.2 kV=0.12 Vminpu=0.8 Vmaxpu=1.2 model=1 kW=6.495867403886884 kvar=1.0074089308244782 Phases=1 yearly=res_kw_597_pu

New Load.load_p1ulv939_1 conn=wye bus1=p1ulv939.1 kV=0.12 Vminpu=0.8 Vmaxpu=1.2 model=1 kW=4.889402611994926 kvar=1.0559288347164948 Phases=1 yearly=res_kw_1160_pu

New Load.load_p1ulv939_2 conn=wye bus1=p1ulv939.2 kV=0.12 Vminpu=0.8 Vmaxpu=1.2 model=1 kW=4.889402611994926 kvar=1.0559288347164948 Phases=1 yearly=res_kw_1160_pu

New Load.load_p1ulv940_1 conn=wye bus1=p1ulv940.1 kV=0.12 Vminpu=0.8 Vmaxpu=1.2 model=1 kW=3.4468581914223817 kvar=1.1411197390818253 Phases=1 yearly=res_kw_250_pu

New Load.load_p1ulv940_2 conn=wye bus1=p1ulv940.2 kV=0.12 Vminpu=0.8 Vmaxpu=1.2 model=1 kW=3.4468581914223817 kvar=1.1411197390818253 Phases=1 yearly=res_kw_250_pu

New Load.load_p1ulv941_1 conn=wye bus1=p1ulv941.1 kV=0.12 Vminpu=0.8 Vmaxpu=1.2 model=1 kW=6.702223593657906 kvar=1.4906391030592414 Phases=1 yearly=res_kw_199_pu

New Load.load_p1ulv941_2 conn=wye bus1=p1ulv941.2 kV=0.12 Vminpu=0.8 Vmaxpu=1.2 model=1 kW=6.702223593657906 kvar=1.4906391030592414 Phases=1 yearly=res_kw_199_pu

New Load.load_p1ulv942_1 conn=wye bus1=p1ulv942.1 kV=0.12 Vminpu=0.8 Vmaxpu=1.2 model=1 kW=6.727252203449795 kvar=1.9067277455995406 Phases=1 yearly=res_kw_822_pu

New Load.load_p1ulv942_2 conn=wye bus1=p1ulv942.2 kV=0.12 Vminpu=0.8 Vmaxpu=1.2 model=1 kW=6.727252203449795 kvar=1.9067277455995406 Phases=1 yearly=res_kw_822_pu

New Load.load_p1ulv943_1 conn=wye bus1=p1ulv943.1 kV=0.12 Vminpu=0.8 Vmaxpu=1.2 model=1 kW=5.947053638705014 kvar=1.2332751328813323 Phases=1 yearly=res_kw_245_pu

New Load.load_p1ulv943_2 conn=wye bus1=p1ulv943.2 kV=0.12 Vminpu=0.8 Vmaxpu=1.2 model=1 kW=5.947053638705014 kvar=1.2332751328813323 Phases=1 yearly=res_kw_245_pu

New Load.load_p1ulv944_1 conn=wye bus1=p1ulv944.1 kV=0.12 Vminpu=0.8 Vmaxpu=1.2 model=1 kW=5.772584848285176 kvar=1.3225757839012733 Phases=1 yearly=res_kw_599_pu

New Load.load_p1ulv944_2 conn=wye bus1=p1ulv944.2 kV=0.12 Vminpu=0.8 Vmaxpu=1.2 model=1 kW=5.772584848285176 kvar=1.3225757839012733 Phases=1 yearly=res_kw_599_pu

New Load.load_p1ulv945_1 conn=wye bus1=p1ulv945.1 kV=0.12 Vminpu=0.8 Vmaxpu=1.2 model=1 kW=6.121843752393233 kvar=1.8222876779408097 Phases=1 yearly=res_kw_1153_pu

New Load.load_p1ulv945_2 conn=wye bus1=p1ulv945.2 kV=0.12 Vminpu=0.8 Vmaxpu=1.2 model=1 kW=6.121843752393233 kvar=1.8222876779408097 Phases=1 yearly=res_kw_1153_pu

New Load.load_p1ulv2611 conn=wye bus1=p1ulv2611.1.2.3 kV=0.48 Vminpu=0.8 Vmaxpu=1.2 model=1 kW=36.50723669611415 kvar=5.711557870450742 Phases=3 yearly=com_kw_14802_pu

New Load.load_p1ulv2612 conn=wye bus1=p1ulv2612.1.2.3 kV=0.48 Vminpu=0.8 Vmaxpu=1.2 model=1 kW=60.66883927508716 kvar=8.335325305509627 Phases=3 yearly=com_kw_14059_pu

New Load.load_p1ulv2613_1 conn=wye bus1=p1ulv2613.1 kV=0.12 Vminpu=0.8 Vmaxpu=1.2 model=1 kW=1.8636614682402992 kvar=0.5015179682387616 Phases=1 yearly=res_kw_532_pu

New Load.load_p1ulv2613_2 conn=wye bus1=p1ulv2613.2 kV=0.12 Vminpu=0.8 Vmaxpu=1.2 model=1 kW=1.8636614682402992 kvar=0.5015179682387616 Phases=1 yearly=res_kw_532_pu

New Load.load_p1ulv2614 conn=wye bus1=p1ulv2614.1.2.3 kV=0.48 Vminpu=0.8 Vmaxpu=1.2 model=1 kW=43.73505631398508 kvar=5.0290236670440045 Phases=3 yearly=res_kw_598_pu

New Load.load_p1ulv2615_1 conn=wye bus1=p1ulv2615.1 kV=0.12 Vminpu=0.8 Vmaxpu=1.2 model=1 kW=3.098218363877214 kvar=0.7122653854230111 Phases=1 yearly=com_kw_12815_pu

New Load.load_p1ulv2615_2 conn=wye bus1=p1ulv2615.2 kV=0.12 Vminpu=0.8 Vmaxpu=1.2 model=1 kW=3.098218363877214 kvar=0.7122653854230111 Phases=1 yearly=com_kw_12815_pu

New Load.load_p1ulv2690_1 conn=wye bus1=p1ulv2690.1 kV=0.12 Vminpu=0.8 Vmaxpu=1.2 model=1 kW=3.472541999699669 kvar=0.6554351791829548 Phases=1 yearly=res_kw_1054_pu

New Load.load_p1ulv2690_2 conn=wye bus1=p1ulv2690.2 kV=0.12 Vminpu=0.8 Vmaxpu=1.2 model=1 kW=3.472541999699669 kvar=0.6554351791829548 Phases=1 yearly=res_kw_1054_pu

New Load.load_p1ulv2691 conn=wye bus1=p1ulv2691.1.2.3 kV=0.48 Vminpu=0.8 Vmaxpu=1.2 model=1 kW=82.07638060650609 kvar=4.1271221195637455 Phases=3 yearly=com_kw_14522_pu

New Load.load_p1ulv2692_1 conn=wye bus1=p1ulv2692.1 kV=0.12 Vminpu=0.8 Vmaxpu=1.2 model=1 kW=4.788649591238137 kvar=1.023651375705972 Phases=1 yearly=res_kw_512_pu

New Load.load_p1ulv2692_2 conn=wye bus1=p1ulv2692.2 kV=0.12 Vminpu=0.8 Vmaxpu=1.2 model=1 kW=4.788649591238137 kvar=1.023651375705972 Phases=1 yearly=res_kw_512_pu

New Load.load_p1ulv2693 conn=wye bus1=p1ulv2693.1.2.3 kV=0.48 Vminpu=0.8 Vmaxpu=1.2 model=1 kW=27.31413429007533 kvar=2.0116721357119838 Phases=3 yearly=res_kw_123_pu

New Load.load_p1ulv2694 conn=wye bus1=p1ulv2694.1.2.3 kV=0.48 Vminpu=0.8 Vmaxpu=1.2 model=1 kW=17.66011877759799 kvar=0.6621589123138862 Phases=3 yearly=res_kw_630_pu

New Load.load_p1ulv2695 conn=wye bus1=p1ulv2695.1.2.3 kV=0.48 Vminpu=0.8 Vmaxpu=1.2 model=1 kW=48.561523049871006 kvar=4.708642227134872 Phases=3 yearly=com_kw_12935_pu

New Load.load_p1ulv2696 conn=wye bus1=p1ulv2696.1.2.3 kV=0.48 Vminpu=0.8 Vmaxpu=1.2 model=1 kW=61.26431445992834 kvar=1.282997230265695 Phases=3 yearly=com_kw_13527_pu

New Load.load_p1ulv2697 conn=wye bus1=p1ulv2697.1.2.3 kV=0.48 Vminpu=0.8 Vmaxpu=1.2 model=1 kW=61.67019452009947 kvar=7.714241992502668 Phases=3 yearly=res_kw_1181_pu

New Load.load_p1ulv2698 conn=wye bus1=p1ulv2698.1.2.3 kV=0.48 Vminpu=0.8 Vmaxpu=1.2 model=1 kW=27.61476157041208 kvar=2.053452334937639 Phases=3 yearly=res_kw_1089_pu

New Load.load_p1ulv2699 conn=wye bus1=p1ulv2699.1.2.3 kV=0.48 Vminpu=0.8 Vmaxpu=1.2 model=1 kW=27.61476157041208 kvar=2.053452334937639 Phases=3 yearly=res_kw_1089_pu

New Load.load_p1ulv2700_1 conn=wye bus1=p1ulv2700.1 kV=0.12 Vminpu=0.8 Vmaxpu=1.2 model=1 kW=5.947053638705014 kvar=1.2332751328813323 Phases=1 yearly=res_kw_245_pu

New Load.load_p1ulv2700_2 conn=wye bus1=p1ulv2700.2 kV=0.12 Vminpu=0.8 Vmaxpu=1.2 model=1 kW=5.947053638705014 kvar=1.2332751328813323 Phases=1 yearly=res_kw_245_pu

New Load.load_p1ulv2701 conn=wye bus1=p1ulv2701.1.2.3 kV=0.48 Vminpu=0.8 Vmaxpu=1.2 model=1 kW=27.31413429007533 kvar=2.0116721357119838 Phases=3 yearly=res_kw_123_pu

New Load.load_p1ulv2702 conn=wye bus1=p1ulv2702.1.2.3 kV=0.48 Vminpu=0.8 Vmaxpu=1.2 model=1 kW=20.34811553716727 kvar=4.467267472776305 Phases=3 yearly=com_kw_13526_pu

New Load.load_p1ulv2703 conn=wye bus1=p1ulv2703.1.2.3 kV=0.48 Vminpu=0.8 Vmaxpu=1.2 model=1 kW=27.61476157041208 kvar=2.053452334937639 Phases=3 yearly=res_kw_1089_pu

New Load.load_p1ulv2704 conn=wye bus1=p1ulv2704.1.2.3 kV=0.48 Vminpu=0.8 Vmaxpu=1.2 model=1 kW=27.31413429007533 kvar=2.0116721357119838 Phases=3 yearly=res_kw_123_pu

New Load.load_p1ulv2705 conn=wye bus1=p1ulv2705.1.2.3 kV=0.48 Vminpu=0.8 Vmaxpu=1.2 model=1 kW=64.2888791954745 kvar=2.0591667177967894 Phases=3 yearly=com_kw_14388_pu

New Load.load_p1ulv2706 conn=wye bus1=p1ulv2706.1.2.3 kV=0.48 Vminpu=0.8 Vmaxpu=1.2 model=1 kW=27.31413429007533 kvar=2.0116721357119838 Phases=3 yearly=res_kw_123_pu

New Load.load_p1ulv2707 conn=wye bus1=p1ulv2707.1.2.3 kV=0.48 Vminpu=0.8 Vmaxpu=1.2 model=1 kW=27.31413429007533 kvar=2.0116721357119838 Phases=3 yearly=res_kw_123_pu

New Load.load_p1ulv2708_1 conn=wye bus1=p1ulv2708.1 kV=0.12 Vminpu=0.8 Vmaxpu=1.2 model=1 kW=9.358521499301396 kvar=0.9436008203397507 Phases=1 yearly=com_kw_12824_pu

New Load.load_p1ulv2708_2 conn=wye bus1=p1ulv2708.2 kV=0.12 Vminpu=0.8 Vmaxpu=1.2 model=1 kW=9.358521499301396 kvar=0.9436008203397507 Phases=1 yearly=com_kw_12824_pu

New Load.load_p1ulv2709_1 conn=wye bus1=p1ulv2709.1 kV=0.12 Vminpu=0.8 Vmaxpu=1.2 model=1 kW=11.101868577286819 kvar=1.7487521788430769 Phases=1 yearly=res_kw_847_pu

New Load.load_p1ulv2709_2 conn=wye bus1=p1ulv2709.2 kV=0.12 Vminpu=0.8 Vmaxpu=1.2 model=1 kW=11.101868577286819 kvar=1.7487521788430769 Phases=1 yearly=res_kw_847_pu

New Load.load_p1ulv2711_1 conn=wye bus1=p1ulv2711.1 kV=0.12 Vminpu=0.8 Vmaxpu=1.2 model=1 kW=5.020630418662337 kvar=1.4660260271132275 Phases=1 yearly=res_kw_664_pu

New Load.load_p1ulv2711_2 conn=wye bus1=p1ulv2711.2 kV=0.12 Vminpu=0.8 Vmaxpu=1.2 model=1 kW=5.020630418662337 kvar=1.4660260271132275 Phases=1 yearly=res_kw_664_pu

New Load.load_p1ulv2712_1 conn=wye bus1=p1ulv2712.1 kV=0.12 Vminpu=0.8 Vmaxpu=1.2 model=1 kW=8.01962100453296 kvar=1.9011506674959975 Phases=1 yearly=res_kw_380_pu

New Load.load_p1ulv2712_2 conn=wye bus1=p1ulv2712.2 kV=0.12 Vminpu=0.8 Vmaxpu=1.2 model=1 kW=8.01962100453296 kvar=1.9011506674959975 Phases=1 yearly=res_kw_380_pu

New Load.load_p1ulv2713_1 conn=wye bus1=p1ulv2713.1 kV=0.12 Vminpu=0.8 Vmaxpu=1.2 model=1 kW=8.01962100453296 kvar=1.9011506674959975 Phases=1 yearly=res_kw_380_pu

New Load.load_p1ulv2713_2 conn=wye bus1=p1ulv2713.2 kV=0.12 Vminpu=0.8 Vmaxpu=1.2 model=1 kW=8.01962100453296 kvar=1.9011506674959975 Phases=1 yearly=res_kw_380_pu

New Load.load_p1ulv9467_1 conn=wye bus1=p1ulv9467.1 kV=0.12 Vminpu=0.8 Vmaxpu=1.2 model=1 kW=7.209663685090437 kvar=1.9416268894576516 Phases=1 yearly=res_kw_356_pu

New Load.load_p1ulv9467_2 conn=wye bus1=p1ulv9467.2 kV=0.12 Vminpu=0.8 Vmaxpu=1.2 model=1 kW=7.209663685090437 kvar=1.9416268894576516 Phases=1 yearly=res_kw_356_pu

New Load.load_p1ulv9468_1 conn=wye bus1=p1ulv9468.1 kV=0.12 Vminpu=0.8 Vmaxpu=1.2 model=1 kW=6.939281854500631 kvar=1.1870532100450388 Phases=1 yearly=res_kw_227_pu

New Load.load_p1ulv9468_2 conn=wye bus1=p1ulv9468.2 kV=0.12 Vminpu=0.8 Vmaxpu=1.2 model=1 kW=6.939281854500631 kvar=1.1870532100450388 Phases=1 yearly=res_kw_227_pu

New Load.load_p1ulv9469_1 conn=wye bus1=p1ulv9469.1 kV=0.12 Vminpu=0.8 Vmaxpu=1.2 model=1 kW=12.235323130683785 kvar=3.343555329740589 Phases=1 yearly=res_kw_1104_pu

New Load.load_p1ulv9469_2 conn=wye bus1=p1ulv9469.2 kV=0.12 Vminpu=0.8 Vmaxpu=1.2 model=1 kW=12.235323130683785 kvar=3.343555329740589 Phases=1 yearly=res_kw_1104_pu

New Load.load_p1ulv9470_1 conn=wye bus1=p1ulv9470.1 kV=0.12 Vminpu=0.8 Vmaxpu=1.2 model=1 kW=13.098094558867626 kvar=1.9465584989288183 Phases=1 yearly=res_kw_795_pu

New Load.load_p1ulv9470_2 conn=wye bus1=p1ulv9470.2 kV=0.12 Vminpu=0.8 Vmaxpu=1.2 model=1 kW=13.098094558867626 kvar=1.9465584989288183 Phases=1 yearly=res_kw_795_pu

New Load.load_p1ulv9472_1 conn=wye bus1=p1ulv9472.1 kV=0.12 Vminpu=0.8 Vmaxpu=1.2 model=1 kW=11.506702661284509 kvar=3.22329926547824 Phases=1 yearly=res_kw_231_pu

New Load.load_p1ulv9472_2 conn=wye bus1=p1ulv9472.2 kV=0.12 Vminpu=0.8 Vmaxpu=1.2 model=1 kW=11.506702661284509 kvar=3.22329926547824 Phases=1 yearly=res_kw_231_pu

New Load.load_p1ulv11623_1 conn=wye bus1=p1ulv11623.1 kV=0.12 Vminpu=0.8 Vmaxpu=1.2 model=1 kW=7.259772519581312 kvar=1.3210086815250959 Phases=1 yearly=res_kw_128_pu

New Load.load_p1ulv11623_2 conn=wye bus1=p1ulv11623.2 kV=0.12 Vminpu=0.8 Vmaxpu=1.2 model=1 kW=7.259772519581312 kvar=1.3210086815250959 Phases=1 yearly=res_kw_128_pu

New Load.load_p1ulv39594_1 conn=wye bus1=p1ulv39594.1 kV=0.12 Vminpu=0.8 Vmaxpu=1.2 model=1 kW=4.817618468644212 kvar=1.1350426223715635 Phases=1 yearly=res_kw_843_pu

New Load.load_p1ulv39594_2 conn=wye bus1=p1ulv39594.2 kV=0.12 Vminpu=0.8 Vmaxpu=1.2 model=1 kW=4.817618468644212 kvar=1.1350426223715635 Phases=1 yearly=res_kw_843_pu

New Load.load_p1ulv39596_1 conn=wye bus1=p1ulv39596.1 kV=0.12 Vminpu=0.8 Vmaxpu=1.2 model=1 kW=6.781528157055726 kvar=1.3939212369369844 Phases=1 yearly=res_kw_548_pu

New Load.load_p1ulv39596_2 conn=wye bus1=p1ulv39596.2 kV=0.12 Vminpu=0.8 Vmaxpu=1.2 model=1 kW=6.781528157055726 kvar=1.3939212369369844 Phases=1 yearly=res_kw_548_pu

New Load.load_p1ulv39599 conn=wye bus1=p1ulv39599.1.2.3 kV=0.48 Vminpu=0.8 Vmaxpu=1.2 model=1 kW=37.06615996289137 kvar=0.636271427608 Phases=3 yearly=com_kw_14478_pu

New Load.load_p1ulv39617_1 conn=wye bus1=p1ulv39617.1 kV=0.12 Vminpu=0.8 Vmaxpu=1.2 model=1 kW=1.8636614682402992 kvar=0.5015179682387616 Phases=1 yearly=res_kw_532_pu

New Load.load_p1ulv39617_2 conn=wye bus1=p1ulv39617.2 kV=0.12 Vminpu=0.8 Vmaxpu=1.2 model=1 kW=1.8636614682402992 kvar=0.5015179682387616 Phases=1 yearly=res_kw_532_pu

New Load.load_p1ulv39642_1 conn=wye bus1=p1ulv39642.1 kV=0.12 Vminpu=0.8 Vmaxpu=1.2 model=1 kW=8.443451253332066 kvar=2.1774315068431793 Phases=1 yearly=com_kw_14194_pu

New Load.load_p1ulv39642_2 conn=wye bus1=p1ulv39642.2 kV=0.12 Vminpu=0.8 Vmaxpu=1.2 model=1 kW=8.443451253332066 kvar=2.1774315068431793 Phases=1 yearly=com_kw_14194_pu

New Load.load_p1ulv39646_1 conn=wye bus1=p1ulv39646.1 kV=0.12 Vminpu=0.8 Vmaxpu=1.2 model=1 kW=4.359410160991208 kvar=0.7703346328307125 Phases=1 yearly=res_kw_470_pu

New Load.load_p1ulv39646_2 conn=wye bus1=p1ulv39646.2 kV=0.12 Vminpu=0.8 Vmaxpu=1.2 model=1 kW=4.359410160991208 kvar=0.7703346328307125 Phases=1 yearly=res_kw_470_pu

New Load.load_p1ulv39657_1 conn=wye bus1=p1ulv39657.1 kV=0.12 Vminpu=0.8 Vmaxpu=1.2 model=1 kW=7.7578735794910925 kvar=1.9049941012910125 Phases=1 yearly=res_kw_863_pu

New Load.load_p1ulv39657_2 conn=wye bus1=p1ulv39657.2 kV=0.12 Vminpu=0.8 Vmaxpu=1.2 model=1 kW=7.7578735794910925 kvar=1.9049941012910125 Phases=1 yearly=res_kw_863_pu

New Load.load_p1ulv39659_1 conn=wye bus1=p1ulv39659.1 kV=0.12 Vminpu=0.8 Vmaxpu=1.2 model=1 kW=2.6241521841182514 kvar=0.8429304779950015 Phases=1 yearly=res_kw_33_pu

New Load.load_p1ulv39659_2 conn=wye bus1=p1ulv39659.2 kV=0.12 Vminpu=0.8 Vmaxpu=1.2 model=1 kW=2.6241521841182514 kvar=0.8429304779950015 Phases=1 yearly=res_kw_33_pu

New Load.load_p1ulv39661_1 conn=wye bus1=p1ulv39661.1 kV=0.12 Vminpu=0.8 Vmaxpu=1.2 model=1 kW=5.942686091683347 kvar=1.452957393533487 Phases=1 yearly=res_kw_772_pu

New Load.load_p1ulv39661_2 conn=wye bus1=p1ulv39661.2 kV=0.12 Vminpu=0.8 Vmaxpu=1.2 model=1 kW=5.942686091683347 kvar=1.452957393533487 Phases=1 yearly=res_kw_772_pu

New Load.load_p1ulv39692_1 conn=wye bus1=p1ulv39692.1 kV=0.12 Vminpu=0.8 Vmaxpu=1.2 model=1 kW=6.727252203449795 kvar=1.9067277455995406 Phases=1 yearly=res_kw_822_pu

New Load.load_p1ulv39692_2 conn=wye bus1=p1ulv39692.2 kV=0.12 Vminpu=0.8 Vmaxpu=1.2 model=1 kW=6.727252203449795 kvar=1.9067277455995406 Phases=1 yearly=res_kw_822_pu

New Load.load_p1ulv39698_1 conn=wye bus1=p1ulv39698.1 kV=0.12 Vminpu=0.8 Vmaxpu=1.2 model=1 kW=6.484825325204597 kvar=1.6440419394084307 Phases=1 yearly=res_kw_1115_pu

New Load.load_p1ulv39698_2 conn=wye bus1=p1ulv39698.2 kV=0.12 Vminpu=0.8 Vmaxpu=1.2 model=1 kW=6.484825325204597 kvar=1.6440419394084307 Phases=1 yearly=res_kw_1115_pu

New Load.load_p1ulv39710_1 conn=wye bus1=p1ulv39710.1 kV=0.12 Vminpu=0.8 Vmaxpu=1.2 model=1 kW=5.574466357705123 kvar=1.0791692562247137 Phases=1 yearly=res_kw_1083_pu

New Load.load_p1ulv39710_2 conn=wye bus1=p1ulv39710.2 kV=0.12 Vminpu=0.8 Vmaxpu=1.2 model=1 kW=5.574466357705123 kvar=1.0791692562247137 Phases=1 yearly=res_kw_1083_pu

New Load.load_p1ulv39711_1 conn=wye bus1=p1ulv39711.1 kV=0.12 Vminpu=0.8 Vmaxpu=1.2 model=1 kW=2.0903747651596376 kvar=0.7957076388263523 Phases=1 yearly=res_kw_1223_pu

New Load.load_p1ulv39711_2 conn=wye bus1=p1ulv39711.2 kV=0.12 Vminpu=0.8 Vmaxpu=1.2 model=1 kW=2.0903747651596376 kvar=0.7957076388263523 Phases=1 yearly=res_kw_1223_pu

New Load.load_p1ulv39713_1 conn=wye bus1=p1ulv39713.1 kV=0.12 Vminpu=0.8 Vmaxpu=1.2 model=1 kW=6.2419949477893475 kvar=3.2518916743102033 Phases=1 yearly=res_kw_748_pu

New Load.load_p1ulv39713_2 conn=wye bus1=p1ulv39713.2 kV=0.12 Vminpu=0.8 Vmaxpu=1.2 model=1 kW=6.2419949477893475 kvar=3.2518916743102033 Phases=1 yearly=res_kw_748_pu

New Load.load_p1ulv39727_1 conn=wye bus1=p1ulv39727.1 kV=0.12 Vminpu=0.8 Vmaxpu=1.2 model=1 kW=6.520159505202592 kvar=1.1378587223610979 Phases=1 yearly=res_kw_879_pu

New Load.load_p1ulv39727_2 conn=wye bus1=p1ulv39727.2 kV=0.12 Vminpu=0.8 Vmaxpu=1.2 model=1 kW=6.520159505202592 kvar=1.1378587223610979 Phases=1 yearly=res_kw_879_pu

New Load.load_p1ulv39770_1 conn=wye bus1=p1ulv39770.1 kV=0.12 Vminpu=0.8 Vmaxpu=1.2 model=1 kW=4.897278139879629 kvar=1.0793580648076895 Phases=1 yearly=res_kw_645_pu

New Load.load_p1ulv39770_2 conn=wye bus1=p1ulv39770.2 kV=0.12 Vminpu=0.8 Vmaxpu=1.2 model=1 kW=4.897278139879629 kvar=1.0793580648076895 Phases=1 yearly=res_kw_645_pu

New Load.load_p1ulv39772_1 conn=wye bus1=p1ulv39772.1 kV=0.12 Vminpu=0.8 Vmaxpu=1.2 model=1 kW=5.474205814350271 kvar=1.42655615644843 Phases=1 yearly=res_kw_616_pu

New Load.load_p1ulv39772_2 conn=wye bus1=p1ulv39772.2 kV=0.12 Vminpu=0.8 Vmaxpu=1.2 model=1 kW=5.474205814350271 kvar=1.42655615644843 Phases=1 yearly=res_kw_616_pu

New Load.load_p1ulv39777_1 conn=wye bus1=p1ulv39777.1 kV=0.12 Vminpu=0.8 Vmaxpu=1.2 model=1 kW=4.658663502989286 kvar=1.3388389434895354 Phases=1 yearly=res_kw_182_pu

New Load.load_p1ulv39777_2 conn=wye bus1=p1ulv39777.2 kV=0.12 Vminpu=0.8 Vmaxpu=1.2 model=1 kW=4.658663502989286 kvar=1.3388389434895354 Phases=1 yearly=res_kw_182_pu

New Load.load_p1ulv39783_1 conn=wye bus1=p1ulv39783.1 kV=0.12 Vminpu=0.8 Vmaxpu=1.2 model=1 kW=6.520159505202592 kvar=1.1378587223610979 Phases=1 yearly=res_kw_879_pu

New Load.load_p1ulv39783_2 conn=wye bus1=p1ulv39783.2 kV=0.12 Vminpu=0.8 Vmaxpu=1.2 model=1 kW=6.520159505202592 kvar=1.1378587223610979 Phases=1 yearly=res_kw_879_pu

New Load.load_p1ulv39818_1 conn=wye bus1=p1ulv39818.1 kV=0.12 Vminpu=0.8 Vmaxpu=1.2 model=1 kW=5.991917116566147 kvar=1.6692124001399427 Phases=1 yearly=res_kw_314_pu

New Load.load_p1ulv39818_2 conn=wye bus1=p1ulv39818.2 kV=0.12 Vminpu=0.8 Vmaxpu=1.2 model=1 kW=5.991917116566147 kvar=1.6692124001399427 Phases=1 yearly=res_kw_314_pu

New Load.load_p1ulv39840_1 conn=wye bus1=p1ulv39840.1 kV=0.12 Vminpu=0.8 Vmaxpu=1.2 model=1 kW=6.727252203449795 kvar=1.9067277455995406 Phases=1 yearly=res_kw_822_pu

New Load.load_p1ulv39840_2 conn=wye bus1=p1ulv39840.2 kV=0.12 Vminpu=0.8 Vmaxpu=1.2 model=1 kW=6.727252203449795 kvar=1.9067277455995406 Phases=1 yearly=res_kw_822_pu

New Load.load_p1ulv39841_1 conn=wye bus1=p1ulv39841.1 kV=0.12 Vminpu=0.8 Vmaxpu=1.2 model=1 kW=2.40000228705824 kvar=1.0173787262529668 Phases=1 yearly=res_kw_1205_pu

New Load.load_p1ulv39841_2 conn=wye bus1=p1ulv39841.2 kV=0.12 Vminpu=0.8 Vmaxpu=1.2 model=1 kW=2.40000228705824 kvar=1.0173787262529668 Phases=1 yearly=res_kw_1205_pu

New Load.load_p1ulv39843_1 conn=wye bus1=p1ulv39843.1 kV=0.12 Vminpu=0.8 Vmaxpu=1.2 model=1 kW=7.259772519581312 kvar=1.3210086815250959 Phases=1 yearly=res_kw_128_pu
