New Load.load_p1ulv841_1 conn=wye bus1=p1ulv841.1 kV=0.12 Vminpu=0.8 Vmaxpu=1.2 model=1 kW=9.341738473663403 kvar=2.018548151169967 Phases=1 yearly=res_kw_504_pu

New Load.load_p1ulv841_2 conn=wye bus1=p1ulv841.2 kV=0.12 Vminpu=0.8 Vmaxpu=1.2 model=1 kW=9.341738473663403 kvar=2.018548151169967 Phases=1 yearly=res_kw_504_pu

New Load.load_p1ulv842_1 conn=wye bus1=p1ulv842.1 kV=0.12 Vminpu=0.8 Vmaxpu=1.2 model=1 kW=1.8636614682402992 kvar=0.5015179682387616 Phases=1 yearly=res_kw_532_pu

New Load.load_p1ulv842_2 conn=wye bus1=p1ulv842.2 kV=0.12 Vminpu=0.8 Vmaxpu=1.2 model=1 kW=1.8636614682402992 kvar=0.5015179682387616 Phases=1 yearly=res_kw_532_pu

New Load.load_p1ulv843_1 conn=wye bus1=p1ulv843.1 kV=0.12 Vminpu=0.8 Vmaxpu=1.2 model=1 kW=5.772584848285176 kvar=1.3225757839012733 Phases=1 yearly=res_kw_599_pu

New Load.load_p1ulv843_2 conn=wye bus1=p1ulv843.2 kV=0.12 Vminpu=0.8 Vmaxpu=1.2 model=1 kW=5.772584848285176 kvar=1.3225757839012733 Phases=1 yearly=res_kw_599_pu

New Load.load_p1ulv844_1 conn=wye bus1=p1ulv844.1 kV=0.12 Vminpu=0.8 Vmaxpu=1.2 model=1 kW=9.666699253995569 kvar=2.090221480167897 Phases=1 yearly=res_kw_46_pu

New Load.load_p1ulv844_2 conn=wye bus1=p1ulv844.2 kV=0.12 Vminpu=0.8 Vmaxpu=1.2 model=1 kW=9.666699253995569 kvar=2.090221480167897 Phases=1 yearly=res_kw_46_pu

New Load.load_p1ulv847_1 conn=wye bus1=p1ulv847.1 kV=0.12 Vminpu=0.8 Vmaxpu=1.2 model=1 kW=6.897997484512368 kvar=1.5073573946072503 Phases=1 yearly=res_kw_40_pu

New Load.load_p1ulv847_2 conn=wye bus1=p1ulv847.2 kV=0.12 Vminpu=0.8 Vmaxpu=1.2 model=1 kW=6.897997484512368 kvar=1.5073573946072503 Phases=1 yearly=res_kw_40_pu

New Load.load_p1ulv849_1 conn=wye bus1=p1ulv849.1 kV=0.12 Vminpu=0.8 Vmaxpu=1.2 model=1 kW=3.308494316062581 kvar=0.7969773391329138 Phases=1 yearly=res_kw_626_pu

New Load.load_p1ulv849_2 conn=wye bus1=p1ulv849.2 kV=0.12 Vminpu=0.8 Vmaxpu=1.2 model=1 kW=3.308494316062581 kvar=0.7969773391329138 Phases=1 yearly=res_kw_626_pu

New Load.load_p1ulv850_1 conn=wye bus1=p1ulv850.1 kV=0.12 Vminpu=0.8 Vmaxpu=1.2 model=1 kW=7.7578735794910925 kvar=1.9049941012910125 Phases=1 yearly=res_kw_863_pu

New Load.load_p1ulv850_2 conn=wye bus1=p1ulv850.2 kV=0.12 Vminpu=0.8 Vmaxpu=1.2 model=1 kW=7.7578735794910925 kvar=1.9049941012910125 Phases=1 yearly=res_kw_863_pu

New Load.load_p1ulv851_1 conn=wye bus1=p1ulv851.1 kV=0.12 Vminpu=0.8 Vmaxpu=1.2 model=1 kW=4.788649591238137 kvar=1.023651375705972 Phases=1 yearly=res_kw_512_pu

New Load.load_p1ulv851_2 conn=wye bus1=p1ulv851.2 kV=0.12 Vminpu=0.8 Vmaxpu=1.2 model=1 kW=4.788649591238137 kvar=1.023651375705972 Phases=1 yearly=res_kw_512_pu

New Load.load_p1ulv854_1 conn=wye bus1=p1ulv854.1 kV=0.12 Vminpu=0.8 Vmaxpu=1.2 model=1 kW=5.020630418662337 kvar=1.4660260271132275 Phases=1 yearly=res_kw_664_pu

New Load.load_p1ulv854_2 conn=wye bus1=p1ulv854.2 kV=0.12 Vminpu=0.8 Vmaxpu=1.2 model=1 kW=5.020630418662337 kvar=1.4660260271132275 Phases=1 yearly=res_kw_664_pu

New Load.load_p1ulv856_1 conn=wye bus1=p1ulv856.1 kV=0.12 Vminpu=0.8 Vmaxpu=1.2 model=1 kW=3.6844020253442458 kvar=1.4451491397155931 Phases=1 yearly=res_kw_1258_pu

New Load.load_p1ulv856_2 conn=wye bus1=p1ulv856.2 kV=0.12 Vminpu=0.8 Vmaxpu=1.2 model=1 kW=3.6844020253442458 kvar=1.4451491397155931 Phases=1 yearly=res_kw_1258_pu

New Load.load_p1ulv7992_1 conn=wye bus1=p1ulv7992.1 kV=0.12 Vminpu=0.8 Vmaxpu=1.2 model=1 kW=6.727252203449795 kvar=1.9067277455995406 Phases=1 yearly=res_kw_822_pu

New Load.load_p1ulv7992_2 conn=wye bus1=p1ulv7992.2 kV=0.12 Vminpu=0.8 Vmaxpu=1.2 model=1 kW=6.727252203449795 kvar=1.9067277455995406 Phases=1 yearly=res_kw_822_pu

New Load.load_p1ulv7993 conn=wye bus1=p1ulv7993.1.2.3 kV=0.48 Vminpu=0.8 Vmaxpu=1.2 model=1 kW=156.2813470535658 kvar=14.110004317025124 Phases=3 yearly=com_kw_12785_pu

New Load.load_p1ulv7994 conn=wye bus1=p1ulv7994.1.2.3 kV=0.48 Vminpu=0.8 Vmaxpu=1.2 model=1 kW=78.15360407785987 kvar=5.41457030731492 Phases=3 yearly=com_kw_14755_pu

New Load.load_p1ulv7995 conn=wye bus1=p1ulv7995.1.2.3 kV=0.48 Vminpu=0.8 Vmaxpu=1.2 model=1 kW=25.130608253750026 kvar=4.776726353137276 Phases=3 yearly=com_kw_14849_pu

New Load.load_p1ulv9475 conn=wye bus1=p1ulv9475.1.2.3 kV=0.48 Vminpu=0.8 Vmaxpu=1.2 model=1 kW=90.84575360320908 kvar=22.30335579553028 Phases=3 yearly=com_kw_13363_pu

New Load.load_p1ulv9527 conn=wye bus1=p1ulv9527.1.2.3 kV=0.48 Vminpu=0.8 Vmaxpu=1.2 model=1 kW=36.50723669611415 kvar=5.711557870450742 Phases=3 yearly=com_kw_14802_pu

New Load.load_p1ulv9528_1 conn=wye bus1=p1ulv9528.1 kV=0.12 Vminpu=0.8 Vmaxpu=1.2 model=1 kW=4.788649591238137 kvar=1.023651375705972 Phases=1 yearly=res_kw_512_pu

New Load.load_p1ulv9528_2 conn=wye bus1=p1ulv9528.2 kV=0.12 Vminpu=0.8 Vmaxpu=1.2 model=1 kW=4.788649591238137 kvar=1.023651375705972 Phases=1 yearly=res_kw_512_pu

New Load.load_p1ulv9529_1 conn=wye bus1=p1ulv9529.1 kV=0.12 Vminpu=0.8 Vmaxpu=1.2 model=1 kW=7.7578735794910925 kvar=1.9049941012910125 Phases=1 yearly=res_kw_863_pu

New Load.load_p1ulv9529_2 conn=wye bus1=p1ulv9529.2 kV=0.12 Vminpu=0.8 Vmaxpu=1.2 model=1 kW=7.7578735794910925 kvar=1.9049941012910125 Phases=1 yearly=res_kw_863_pu

New Load.load_p1ulv9530_1 conn=wye bus1=p1ulv9530.1 kV=0.12 Vminpu=0.8 Vmaxpu=1.2 model=1 kW=12.942619161413797 kvar=0.39228047994204024 Phases=1 yearly=com_kw_15042_pu

New Load.load_p1ulv9530_2 conn=wye bus1=p1ulv9530.2 kV=0.12 Vminpu=0.8 Vmaxpu=1.2 model=1 kW=12.942619161413797 kvar=0.39228047994204024 Phases=1 yearly=com_kw_15042_pu

New Load.load_p1ulv9531_1 conn=wye bus1=p1ulv9531.1 kV=0.12 Vminpu=0.8 Vmaxpu=1.2 model=1 kW=12.942619161413797 kvar=0.39228047994204024 Phases=1 yearly=com_kw_15042_pu

New Load.load_p1ulv9531_2 conn=wye bus1=p1ulv9531.2 kV=0.12 Vminpu=0.8 Vmaxpu=1.2 model=1 kW=12.942619161413797 kvar=0.39228047994204024 Phases=1 yearly=com_kw_15042_pu

New Load.load_p1ulv9532_1 conn=wye bus1=p1ulv9532.1 kV=0.12 Vminpu=0.8 Vmaxpu=1.2 model=1 kW=7.259772519581312 kvar=1.3210086815250959 Phases=1 yearly=res_kw_128_pu

New Load.load_p1ulv9532_2 conn=wye bus1=p1ulv9532.2 kV=0.12 Vminpu=0.8 Vmaxpu=1.2 model=1 kW=7.259772519581312 kvar=1.3210086815250959 Phases=1 yearly=res_kw_128_pu

New Load.load_p1ulv9533_1 conn=wye bus1=p1ulv9533.1 kV=0.12 Vminpu=0.8 Vmaxpu=1.2 model=1 kW=2.40000228705824 kvar=1.0173787262529668 Phases=1 yearly=res_kw_1205_pu

New Load.load_p1ulv9533_2 conn=wye bus1=p1ulv9533.2 kV=0.12 Vminpu=0.8 Vmaxpu=1.2 model=1 kW=2.40000228705824 kvar=1.0173787262529668 Phases=1 yearly=res_kw_1205_pu

New Load.load_p1ulv9534_1 conn=wye bus1=p1ulv9534.1 kV=0.12 Vminpu=0.8 Vmaxpu=1.2 model=1 kW=7.786556958689504 kvar=0.9113956767254804 Phases=1 yearly=res_kw_1183_pu

New Load.load_p1ulv9534_2 conn=wye bus1=p1ulv9534.2 kV=0.12 Vminpu=0.8 Vmaxpu=1.2 model=1 kW=7.786556958689504 kvar=0.9113956767254804 Phases=1 yearly=res_kw_1183_pu

New Load.load_p1ulv9535_1 conn=wye bus1=p1ulv9535.1 kV=0.12 Vminpu=0.8 Vmaxpu=1.2 model=1 kW=2.9178485115923896 kvar=1.0715119122844614 Phases=1 yearly=res_kw_1149_pu

New Load.load_p1ulv9535_2 conn=wye bus1=p1ulv9535.2 kV=0.12 Vminpu=0.8 Vmaxpu=1.2 model=1 kW=2.9178485115923896 kvar=1.0715119122844614 Phases=1 yearly=res_kw_1149_pu

New Load.load_p1ulv9536_1 conn=wye bus1=p1ulv9536.1 kV=0.12 Vminpu=0.8 Vmaxpu=1.2 model=1 kW=6.847378896370207 kvar=0.2857422414791666 Phases=1 yearly=com_kw_14382_pu

New Load.load_p1ulv9536_2 conn=wye bus1=p1ulv9536.2 kV=0.12 Vminpu=0.8 Vmaxpu=1.2 model=1 kW=6.847378896370207 kvar=0.2857422414791666 Phases=1 yearly=com_kw_14382_pu

New Load.load_p1ulv9537 conn=wye bus1=p1ulv9537.1.2.3 kV=0.48 Vminpu=0.8 Vmaxpu=1.2 model=1 kW=29.06847666053555 kvar=5.848529560450256 Phases=3 yearly=com_kw_14619_pu

New Load.load_p1umv19 conn=wye bus1=p1umv19.1.2.3 kV=12.47 Vminpu=0.8 Vmaxpu=1.2 model=1 kW=501.4166135095707 kvar=84.66172832325124 Phases=3 yearly=com_kw_13965_pu

New Load.load_p1ulv9538_1 conn=wye bus1=p1ulv9538.1 kV=0.12 Vminpu=0.8 Vmaxpu=1.2 model=1 kW=2.1376631749204993 kvar=0.6218033466021168 Phases=1 yearly=res_kw_93_pu

New Load.load_p1ulv9538_2 conn=wye bus1=p1ulv9538.2 kV=0.12 Vminpu=0.8 Vmaxpu=1.2 model=1 kW=2.1376631749204993 kvar=0.6218033466021168 Phases=1 yearly=res_kw_93_pu

New Load.load_p1umv20 conn=wye bus1=p1umv20.1.2.3 kV=12.47 Vminpu=0.8 Vmaxpu=1.2 model=1 kW=501.4166135095707 kvar=84.66172832325124 Phases=3 yearly=com_kw_13965_pu

New Load.load_p1ulv11001 conn=wye bus1=p1ulv11001.1.2.3 kV=0.48 Vminpu=0.8 Vmaxpu=1.2 model=1 kW=201.5838769319976 kvar=11.080847245425444 Phases=3 yearly=com_kw_13461_pu

New Load.load_p1ulv11002 conn=wye bus1=p1ulv11002.1.2.3 kV=0.48 Vminpu=0.8 Vmaxpu=1.2 model=1 kW=140.90825109595997 kvar=38.90198824972337 Phases=3 yearly=com_kw_13492_pu

New Load.load_p1ulv11003_1 conn=wye bus1=p1ulv11003.1 kV=0.12 Vminpu=0.8 Vmaxpu=1.2 model=1 kW=4.066587428282395 kvar=0.7788614811484863 Phases=1 yearly=res_kw_887_pu

New Load.load_p1ulv11003_2 conn=wye bus1=p1ulv11003.2 kV=0.12 Vminpu=0.8 Vmaxpu=1.2 model=1 kW=4.066587428282395 kvar=0.7788614811484863 Phases=1 yearly=res_kw_887_pu

New Load.load_p1ulv11004_1 conn=wye bus1=p1ulv11004.1 kV=0.12 Vminpu=0.8 Vmaxpu=1.2 model=1 kW=2.605021030189827 kvar=1.0007509371876184 Phases=1 yearly=res_kw_24_pu

New Load.load_p1ulv11004_2 conn=wye bus1=p1ulv11004.2 kV=0.12 Vminpu=0.8 Vmaxpu=1.2 model=1 kW=2.605021030189827 kvar=1.0007509371876184 Phases=1 yearly=res_kw_24_pu

New Load.load_p1ulv11005_1 conn=wye bus1=p1ulv11005.1 kV=0.12 Vminpu=0.8 Vmaxpu=1.2 model=1 kW=2.605021030189827 kvar=1.0007509371876184 Phases=1 yearly=res_kw_24_pu

New Load.load_p1ulv11005_2 conn=wye bus1=p1ulv11005.2 kV=0.12 Vminpu=0.8 Vmaxpu=1.2 model=1 kW=2.605021030189827 kvar=1.0007509371876184 Phases=1 yearly=res_kw_24_pu

New Load.load_p1ulv11006_1 conn=wye bus1=p1ulv11006.1 kV=0.12 Vminpu=0.8 Vmaxpu=1.2 model=1 kW=5.675346369339635 kvar=1.238985226090579 Phases=1 yearly=res_kw_1186_pu

New Load.load_p1ulv11006_2 conn=wye bus1=p1ulv11006.2 kV=0.12 Vminpu=0.8 Vmaxpu=1.2 model=1 kW=5.675346369339635 kvar=1.238985226090579 Phases=1 yearly=res_kw_1186_pu

New Load.load_p1ulv11007_1 conn=wye bus1=p1ulv11007.1 kV=0.12 Vminpu=0.8 Vmaxpu=1.2 model=1 kW=5.675346369339635 kvar=1.238985226090579 Phases=1 yearly=res_kw_1186_pu

New Load.load_p1ulv11007_2 conn=wye bus1=p1ulv11007.2 kV=0.12 Vminpu=0.8 Vmaxpu=1.2 model=1 kW=5.675346369339635 kvar=1.238985226090579 Phases=1 yearly=res_kw_1186_pu

New Load.load_p1ulv11008_1 conn=wye bus1=p1ulv11008.1 kV=0.12 Vminpu=0.8 Vmaxpu=1.2 model=1 kW=2.605021030189827 kvar=1.0007509371876184 Phases=1 yearly=res_kw_24_pu

New Load.load_p1ulv11008_2 conn=wye bus1=p1ulv11008.2 kV=0.12 Vminpu=0.8 Vmaxpu=1.2 model=1 kW=2.605021030189827 kvar=1.0007509371876184 Phases=1 yearly=res_kw_24_pu

New Load.load_p1ulv11009_1 conn=wye bus1=p1ulv11009.1 kV=0.12 Vminpu=0.8 Vmaxpu=1.2 model=1 kW=1.8618983584330409 kvar=0.7337589993741062 Phases=1 yearly=res_kw_141_pu

New Load.load_p1ulv11009_2 conn=wye bus1=p1ulv11009.2 kV=0.12 Vminpu=0.8 Vmaxpu=1.2 model=1 kW=1.8618983584330409 kvar=0.7337589993741062 Phases=1 yearly=res_kw_141_pu

New Load.load_p1ulv11010_1 conn=wye bus1=p1ulv11010.1 kV=0.12 Vminpu=0.8 Vmaxpu=1.2 model=1 kW=2.1578213071803583 kvar=0.8327090061289109 Phases=1 yearly=res_kw_696_pu

New Load.load_p1ulv11010_2 conn=wye bus1=p1ulv11010.2 kV=0.12 Vminpu=0.8 Vmaxpu=1.2 model=1 kW=2.1578213071803583 kvar=0.8327090061289109 Phases=1 yearly=res_kw_696_pu

New Load.load_p1ulv11011_1 conn=wye bus1=p1ulv11011.1 kV=0.12 Vminpu=0.8 Vmaxpu=1.2 model=1 kW=4.066587428282395 kvar=0.7788614811484863 Phases=1 yearly=res_kw_887_pu

New Load.load_p1ulv11011_2 conn=wye bus1=p1ulv11011.2 kV=0.12 Vminpu=0.8 Vmaxpu=1.2 model=1 kW=4.066587428282395 kvar=0.7788614811484863 Phases=1 yearly=res_kw_887_pu

New Load.load_p1ulv11012_1 conn=wye bus1=p1ulv11012.1 kV=0.12 Vminpu=0.8 Vmaxpu=1.2 model=1 kW=2.1376631749204993 kvar=0.6218033466021168 Phases=1 yearly=res_kw_93_pu

New Load.load_p1ulv11012_2 conn=wye bus1=p1ulv11012.2 kV=0.12 Vminpu=0.8 Vmaxpu=1.2 model=1 kW=2.1376631749204993 kvar=0.6218033466021168 Phases=1 yearly=res_kw_93_pu

New Load.load_p1ulv11013_1 conn=wye bus1=p1ulv11013.1 kV=0.12 Vminpu=0.8 Vmaxpu=1.2 model=1 kW=3.3701610259235064 kvar=1.065454990641787 Phases=1 yearly=res_kw_1037_pu

New Load.load_p1ulv11013_2 conn=wye bus1=p1ulv11013.2 kV=0.12 Vminpu=0.8 Vmaxpu=1.2 model=1 kW=3.3701610259235064 kvar=1.065454990641787 Phases=1 yearly=res_kw_1037_pu

New Load.load_p1ulv11014_1 conn=wye bus1=p1ulv11014.1 kV=0.12 Vminpu=0.8 Vmaxpu=1.2 model=1 kW=2.6241521841182514 kvar=0.8429304779950015 Phases=1 yearly=res_kw_33_pu

New Load.load_p1ulv11014_2 conn=wye bus1=p1ulv11014.2 kV=0.12 Vminpu=0.8 Vmaxpu=1.2 model=1 kW=2.6241521841182514 kvar=0.8429304779950015 Phases=1 yearly=res_kw_33_pu

New Load.load_p1ulv11015_1 conn=wye bus1=p1ulv11015.1 kV=0.12 Vminpu=0.8 Vmaxpu=1.2 model=1 kW=4.658663502989286 kvar=1.3388389434895354 Phases=1 yearly=res_kw_182_pu

New Load.load_p1ulv11015_2 conn=wye bus1=p1ulv11015.2 kV=0.12 Vminpu=0.8 Vmaxpu=1.2 model=1 kW=4.658663502989286 kvar=1.3388389434895354 Phases=1 yearly=res_kw_182_pu

New Load.load_p1ulv11016_1 conn=wye bus1=p1ulv11016.1 kV=0.12 Vminpu=0.8 Vmaxpu=1.2 model=1 kW=5.675346369339635 kvar=1.238985226090579 Phases=1 yearly=res_kw_1186_pu

New Load.load_p1ulv11016_2 conn=wye bus1=p1ulv11016.2 kV=0.12 Vminpu=0.8 Vmaxpu=1.2 model=1 kW=5.675346369339635 kvar=1.238985226090579 Phases=1 yearly=res_kw_1186_pu

New Load.load_p1ulv11017_1 conn=wye bus1=p1ulv11017.1 kV=0.12 Vminpu=0.8 Vmaxpu=1.2 model=1 kW=2.605021030189827 kvar=1.0007509371876184 Phases=1 yearly=res_kw_24_pu

New Load.load_p1ulv11017_2 conn=wye bus1=p1ulv11017.2 kV=0.12 Vminpu=0.8 Vmaxpu=1.2 model=1 kW=2.605021030189827 kvar=1.0007509371876184 Phases=1 yearly=res_kw_24_pu

New Load.load_p1ulv11018_1 conn=wye bus1=p1ulv11018.1 kV=0.12 Vminpu=0.8 Vmaxpu=1.2 model=1 kW=3.3701610259235064 kvar=1.065454990641787 Phases=1 yearly=res_kw_1037_pu

New Load.load_p1ulv11018_2 conn=wye bus1=p1ulv11018.2 kV=0.12 Vminpu=0.8 Vmaxpu=1.2 model=1 kW=3.3701610259235064 kvar=1.065454990641787 Phases=1 yearly=res_kw_1037_pu

New Load.load_p1ulv11019_1 conn=wye bus1=p1ulv11019.1 kV=0.12 Vminpu=0.8 Vmaxpu=1.2 model=1 kW=2.605021030189827 kvar=1.0007509371876184 Phases=1 yearly=res_kw_24_pu

New Load.load_p1ulv11019_2 conn=wye bus1=p1ulv11019.2 kV=0.12 Vminpu=0.8 Vmaxpu=1.2 model=1 kW=2.605021030189827 kvar=1.0007509371876184 Phases=1 yearly=res_kw_24_pu

New Load.load_p1ulv11020_1 conn=wye bus1=p1ulv11020.1 kV=0.12 Vminpu=0.8 Vmaxpu=1.2 model=1 kW=2.1376631749204993 kvar=0.6218033466021168 Phases=1 yearly=res_kw_93_pu

New Load.load_p1ulv11020_2 conn=wye bus1=p1ulv11020.2 kV=0.12 Vminpu=0.8 Vmaxpu=1.2 model=1 kW=2.1376631749204993 kvar=0.6218033466021168 Phases=1 yearly=res_kw_93_pu

New Load.load_p1ulv11021_1 conn=wye bus1=p1ulv11021.1 kV=0.12 Vminpu=0.8 Vmaxpu=1.2 model=1 kW=2.605021030189827 kvar=1.0007509371876184 Phases=1 yearly=res_kw_24_pu

New Load.load_p1ulv11021_2 conn=wye bus1=p1ulv11021.2 kV=0.12 Vminpu=0.8 Vmaxpu=1.2 model=1 kW=2.605021030189827 kvar=1.0007509371876184 Phases=1 yearly=res_kw_24_pu

New Load.load_p1ulv11022_1 conn=wye bus1=p1ulv11022.1 kV=0.12 Vminpu=0.8 Vmaxpu=1.2 model=1 kW=5.772584848285176 kvar=1.3225757839012733 Phases=1 yearly=res_kw_599_pu

New Load.load_p1ulv11022_2 conn=wye bus1=p1ulv11022.2 kV=0.12 Vminpu=0.8 Vmaxpu=1.2 model=1 kW=5.772584848285176 kvar=1.3225757839012733 Phases=1 yearly=res_kw_599_pu

New Load.load_p1ulv11023_1 conn=wye bus1=p1ulv11023.1 kV=0.12 Vminpu=0.8 Vmaxpu=1.2 model=1 kW=2.1376631749204993 kvar=0.6218033466021168 Phases=1 yearly=res_kw_93_pu

New Load.load_p1ulv11023_2 conn=wye bus1=p1ulv11023.2 kV=0.12 Vminpu=0.8 Vmaxpu=1.2 model=1 kW=2.1376631749204993 kvar=0.6218033466021168 Phases=1 yearly=res_kw_93_pu

New Load.load_p1ulv11024_1 conn=wye bus1=p1ulv11024.1 kV=0.12 Vminpu=0.8 Vmaxpu=1.2 model=1 kW=2.605021030189827 kvar=1.0007509371876184 Phases=1 yearly=res_kw_24_pu

New Load.load_p1ulv11024_2 conn=wye bus1=p1ulv11024.2 kV=0.12 Vminpu=0.8 Vmaxpu=1.2 model=1 kW=2.605021030189827 kvar=1.0007509371876184 Phases=1 yearly=res_kw_24_pu

New Load.load_p1ulv11025_1 conn=wye bus1=p1ulv11025.1 kV=0.12 Vminpu=0.8 Vmaxpu=1.2 model=1 kW=2.1376631749204993 kvar=0.6218033466021168 Phases=1 yearly=res_kw_93_pu

New Load.load_p1ulv11025_2 conn=wye bus1=p1ulv11025.2 kV=0.12 Vminpu=0.8 Vmaxpu=1.2 model=1 kW=2.1376631749204993 kvar=0.6218033466021168 Phases=1 yearly=res_kw_93_pu

New Load.load_p1ulv11026_1 conn=wye bus1=p1ulv11026.1 kV=0.12 Vminpu=0.8 Vmaxpu=1.2 model=1 kW=2.605021030189827 kvar=1.0007509371876184 Phases=1 yearly=res_kw_24_pu

New Load.load_p1ulv11026_2 conn=wye bus1=p1ulv11026.2 kV=0.12 Vminpu=0.8 Vmaxpu=1.2 model=1 kW=2.605021030189827 kvar=1.0007509371876184 Phases=1 yearly=res_kw_24_pu

New Load.load_p1ulv11027_1 conn=wye bus1=p1ulv11027.1 kV=0.12 Vminpu=0.8 Vmaxpu=1.2 model=1 kW=5.675346369339635 kvar=1.238985226090579 Phases=1 yearly=res_kw_1186_pu

New Load.load_p1ulv11027_2 conn=wye bus1=p1ulv11027.2 kV=0.12 Vminpu=0.8 Vmaxpu=1.2 model=1 kW=5.675346369339635 kvar=1.238985226090579 Phases=1 yearly=res_kw_1186_pu

New Load.load_p1ulv11028_1 conn=wye bus1=p1ulv11028.1 kV=0.12 Vminpu=0.8 Vmaxpu=1.2 model=1 kW=2.1376631749204993 kvar=0.6218033466021168 Phases=1 yearly=res_kw_93_pu

New Load.load_p1ulv11028_2 conn=wye bus1=p1ulv11028.2 kV=0.12 Vminpu=0.8 Vmaxpu=1.2 model=1 kW=2.1376631749204993 kvar=0.6218033466021168 Phases=1 yearly=res_kw_93_pu

New Load.load_p1ulv11029_1 conn=wye bus1=p1ulv11028.1 kV=0.12 Vminpu=0.8 Vmaxpu=1.2 model=1 kW=2.623267981089487 kvar=1.212519304398851 Phases=1 yearly=res_kw_452_pu

New Load.load_p1ulv11029_2 conn=wye bus1=p1ulv11028.2 kV=0.12 Vminpu=0.8 Vmaxpu=1.2 model=1 kW=2.623267981089487 kvar=1.212519304398851 Phases=1 yearly=res_kw_452_pu

New Load.load_p1ulv11030_1 conn=wye bus1=p1ulv11030.1 kV=0.12 Vminpu=0.8 Vmaxpu=1.2 model=1 kW=2.623267981089487 kvar=1.212519304398851 Phases=1 yearly=res_kw_452_pu

New Load.load_p1ulv11030_2 conn=wye bus1=p1ulv11030.2 kV=0.12 Vminpu=0.8 Vmaxpu=1.2 model=1 kW=2.623267981089487 kvar=1.212519304398851 Phases=1 yearly=res_kw_452_pu

New Load.load_p1ulv11031_1 conn=wye bus1=p1ulv11031.1 kV=0.12 Vminpu=0.8 Vmaxpu=1.2 model=1 kW=2.1376631749204993 kvar=0.6218033466021168 Phases=1 yearly=res_kw_93_pu

New Load.load_p1ulv11031_2 conn=wye bus1=p1ulv11031.2 kV=0.12 Vminpu=0.8 Vmaxpu=1.2 model=1 kW=2.1376631749204993 kvar=0.6218033466021168 Phases=1 yearly=res_kw_93_pu

New Load.load_p1ulv11032_1 conn=wye bus1=p1ulv11031.1 kV=0.12 Vminpu=0.8 Vmaxpu=1.2 model=1 kW=2.605021030189827 kvar=1.0007509371876184 Phases=1 yearly=res_kw_24_pu

New Load.load_p1ulv11032_2 conn=wye bus1=p1ulv11031.2 kV=0.12 Vminpu=0.8 Vmaxpu=1.2 model=1 kW=2.605021030189827 kvar=1.0007509371876184 Phases=1 yearly=res_kw_24_pu

New Load.load_p1ulv11033_1 conn=wye bus1=p1ulv11033.1 kV=0.12 Vminpu=0.8 Vmaxpu=1.2 model=1 kW=4.788649591238137 kvar=1.023651375705972 Phases=1 yearly=res_kw_512_pu

New Load.load_p1ulv11033_2 conn=wye bus1=p1ulv11033.2 kV=0.12 Vminpu=0.8 Vmaxpu=1.2 model=1 kW=4.788649591238137 kvar=1.023651375705972 Phases=1 yearly=res_kw_512_pu

New Load.load_p1ulv11034_1 conn=wye bus1=p1ulv11034.1 kV=0.12 Vminpu=0.8 Vmaxpu=1.2 model=1 kW=2.1894046505184286 kvar=0.7281040757251952 Phases=1 yearly=res_kw_1042_pu

New Load.load_p1ulv11034_2 conn=wye bus1=p1ulv11034.2 kV=0.12 Vminpu=0.8 Vmaxpu=1.2 model=1 kW=2.1894046505184286 kvar=0.7281040757251952 Phases=1 yearly=res_kw_1042_pu

New Load.load_p1ulv11035_1 conn=wye bus1=p1ulv11034.1 kV=0.12 Vminpu=0.8 Vmaxpu=1.2 model=1 kW=2.1376631749204993 kvar=0.6218033466021168 Phases=1 yearly=res_kw_93_pu

New Load.load_p1ulv11035_2 conn=wye bus1=p1ulv11034.2 kV=0.12 Vminpu=0.8 Vmaxpu=1.2 model=1 kW=2.1376631749204993 kvar=0.6218033466021168 Phases=1 yearly=res_kw_93_pu

New Load.load_p1ulv11036_1 conn=wye bus1=p1ulv11036.1 kV=0.12 Vminpu=0.8 Vmaxpu=1.2 model=1 kW=1.7932717143582468 kvar=0.4137486634368157 Phases=1 yearly=res_kw_931_pu

New Load.load_p1ulv11036_2 conn=wye bus1=p1ulv11036.2 kV=0.12 Vminpu=0.8 Vmaxpu=1.2 model=1 kW=1.7932717143582468 kvar=0.4137486634368157 Phases=1 yearly=res_kw_931_pu

New Load.load_p1ulv11037_1 conn=wye bus1=p1ulv11037.1 kV=0.12 Vminpu=0.8 Vmaxpu=1.2 model=1 kW=1.8618983584330409 kvar=0.7337589993741062 Phases=1 yearly=res_kw_141_pu

New Load.load_p1ulv11037_2 conn=wye bus1=p1ulv11037.2 kV=0.12 Vminpu=0.8 Vmaxpu=1.2 model=1 kW=1.8618983584330409 kvar=0.7337589993741062 Phases=1 yearly=res_kw_141_pu

New Load.load_p1ulv11038_1 conn=wye bus1=p1ulv11037.1 kV=0.12 Vminpu=0.8 Vmaxpu=1.2 model=1 kW=2.623267981089487 kvar=1.212519304398851 Phases=1 yearly=res_kw_452_pu

New Load.load_p1ulv11038_2 conn=wye bus1=p1ulv11037.2 kV=0.12 Vminpu=0.8 Vmaxpu=1.2 model=1 kW=2.623267981089487 kvar=1.212519304398851 Phases=1 yearly=res_kw_452_pu

New Load.load_p1ulv11039_1 conn=wye bus1=p1ulv11039.1 kV=0.12 Vminpu=0.8 Vmaxpu=1.2 model=1 kW=2.6241521841182514 kvar=0.8429304779950015 Phases=1 yearly=res_kw_33_pu

New Load.load_p1ulv11039_2 conn=wye bus1=p1ulv11039.2 kV=0.12 Vminpu=0.8 Vmaxpu=1.2 model=1 kW=2.6241521841182514 kvar=0.8429304779950015 Phases=1 yearly=res_kw_33_pu

New Load.load_p1ulv11040_1 conn=wye bus1=p1ulv11040.1 kV=0.12 Vminpu=0.8 Vmaxpu=1.2 model=1 kW=2.605021030189827 kvar=1.0007509371876184 Phases=1 yearly=res_kw_24_pu

New Load.load_p1ulv11040_2 conn=wye bus1=p1ulv11040.2 kV=0.12 Vminpu=0.8 Vmaxpu=1.2 model=1 kW=2.605021030189827 kvar=1.0007509371876184 Phases=1 yearly=res_kw_24_pu

New Load.load_p1ulv11041_1 conn=wye bus1=p1ulv11041.1 kV=0.12 Vminpu=0.8 Vmaxpu=1.2 model=1 kW=2.1376631749204993 kvar=0.6218033466021168 Phases=1 yearly=res_kw_93_pu

New Load.load_p1ulv11041_2 conn=wye bus1=p1ulv11041.2 kV=0.12 Vminpu=0.8 Vmaxpu=1.2 model=1 kW=2.1376631749204993 kvar=0.6218033466021168 Phases=1 yearly=res_kw_93_pu

New Load.load_p1ulv11042_1 conn=wye bus1=p1ulv11042.1 kV=0.12 Vminpu=0.8 Vmaxpu=1.2 model=1 kW=1.8618983584330409 kvar=0.7337589993741062 Phases=1 yearly=res_kw_141_pu

New Load.load_p1ulv11042_2 conn=wye bus1=p1ulv11042.2 kV=0.12 Vminpu=0.8 Vmaxpu=1.2 model=1 kW=1.8618983584330409 kvar=0.7337589993741062 Phases=1 yearly=res_kw_141_pu

New Load.load_p1ulv11043_1 conn=wye bus1=p1ulv11043.1 kV=0.12 Vminpu=0.8 Vmaxpu=1.2 model=1 kW=2.605021030189827 kvar=1.0007509371876184 Phases=1 yearly=res_kw_24_pu

New Load.load_p1ulv11043_2 conn=wye bus1=p1ulv11043.2 kV=0.12 Vminpu=0.8 Vmaxpu=1.2 model=1 kW=2.605021030189827 kvar=1.0007509371876184 Phases=1 yearly=res_kw_24_pu

New Load.load_p1ulv11044_1 conn=wye bus1=p1ulv11044.1 kV=0.12 Vminpu=0.8 Vmaxpu=1.2 model=1 kW=2.605021030189827 kvar=1.0007509371876184 Phases=1 yearly=res_kw_24_pu

New Load.load_p1ulv11044_2 conn=wye bus1=p1ulv11044.2 kV=0.12 Vminpu=0.8 Vmaxpu=1.2 model=1 kW=2.605021030189827 kvar=1.0007509371876184 Phases=1 yearly=res_kw_24_pu

New Load.load_p1ulv11045_1 conn=wye bus1=p1ulv11045.1 kV=0.12 Vminpu=0.8 Vmaxpu=1.2 model=1 kW=5.772584848285176 kvar=1.3225757839012733 Phases=1 yearly=res_kw_599_pu

New Load.load_p1ulv11045_2 conn=wye bus1=p1ulv11045.2 kV=0.12 Vminpu=0.8 Vmaxpu=1.2 model=1 kW=5.772584848285176 kvar=1.3225757839012733 Phases=1 yearly=res_kw_599_pu

New Load.load_p1ulv11046_1 conn=wye bus1=p1ulv11046.1 kV=0.12 Vminpu=0.8 Vmaxpu=1.2 model=1 kW=2.1894046505184286 kvar=0.7281040757251952 Phases=1 yearly=res_kw_1042_pu

New Load.load_p1ulv11046_2 conn=wye bus1=p1ulv11046.2 kV=0.12 Vminpu=0.8 Vmaxpu=1.2 model=1 kW=2.1894046505184286 kvar=0.7281040757251952 Phases=1 yearly=res_kw_1042_pu

New Load.load_p1ulv11047_1 conn=wye bus1=p1ulv11047.1 kV=0.12 Vminpu=0.8 Vmaxpu=1.2 model=1 kW=1.3741353032147752 kvar=0.58237922359024 Phases=1 yearly=res_kw_1041_pu

New Load.load_p1ulv11047_2 conn=wye bus1=p1ulv11047.2 kV=0.12 Vminpu=0.8 Vmaxpu=1.2 model=1 kW=1.3741353032147752 kvar=0.58237922359024 Phases=1 yearly=res_kw_1041_pu

New Load.load_p1ulv11048_1 conn=wye bus1=p1ulv11048.1 kV=0.12 Vminpu=0.8 Vmaxpu=1.2 model=1 kW=2.1376631749204993 kvar=0.6218033466021168 Phases=1 yearly=res_kw_93_pu

New Load.load_p1ulv11048_2 conn=wye bus1=p1ulv11048.2 kV=0.12 Vminpu=0.8 Vmaxpu=1.2 model=1 kW=2.1376631749204993 kvar=0.6218033466021168 Phases=1 yearly=res_kw_93_pu

New Load.load_p1ulv11049_1 conn=wye bus1=p1ulv11049.1 kV=0.12 Vminpu=0.8 Vmaxpu=1.2 model=1 kW=2.5137827263873103 kvar=0.7927782724892762 Phases=1 yearly=res_kw_621_pu

New Load.load_p1ulv11049_2 conn=wye bus1=p1ulv11049.2 kV=0.12 Vminpu=0.8 Vmaxpu=1.2 model=1 kW=2.5137827263873103 kvar=0.7927782724892762 Phases=1 yearly=res_kw_621_pu

New Load.load_p1ulv11050_1 conn=wye bus1=p1ulv11050.1 kV=0.12 Vminpu=0.8 Vmaxpu=1.2 model=1 kW=2.1376631749204993 kvar=0.6218033466021168 Phases=1 yearly=res_kw_93_pu

New Load.load_p1ulv11050_2 conn=wye bus1=p1ulv11050.2 kV=0.12 Vminpu=0.8 Vmaxpu=1.2 model=1 kW=2.1376631749204993 kvar=0.6218033466021168 Phases=1 yearly=res_kw_93_pu

New Load.load_p1ulv11051_1 conn=wye bus1=p1ulv11051.1 kV=0.12 Vminpu=0.8 Vmaxpu=1.2 model=1 kW=2.658027342573646 kvar=0.9113625924854422 Phases=1 yearly=res_kw_1105_pu

New Load.load_p1ulv11051_2 conn=wye bus1=p1ulv11051.2 kV=0.12 Vminpu=0.8 Vmaxpu=1.2 model=1 kW=2.658027342573646 kvar=0.9113625924854422 Phases=1 yearly=res_kw_1105_pu

New Load.load_p1ulv11052_1 conn=wye bus1=p1ulv11052.1 kV=0.12 Vminpu=0.8 Vmaxpu=1.2 model=1 kW=5.4313165050257775 kvar=1.3233518473888222 Phases=1 yearly=res_kw_355_pu

New Load.load_p1ulv11052_2 conn=wye bus1=p1ulv11052.2 kV=0.12 Vminpu=0.8 Vmaxpu=1.2 model=1 kW=5.4313165050257775 kvar=1.3233518473888222 Phases=1 yearly=res_kw_355_pu

New Load.load_p1ulv11053_1 conn=wye bus1=p1ulv11053.1 kV=0.12 Vminpu=0.8 Vmaxpu=1.2 model=1 kW=1.6746299650392789 kvar=0.594727774010976 Phases=1 yearly=res_kw_1276_pu

New Load.load_p1ulv11053_2 conn=wye bus1=p1ulv11053.2 kV=0.12 Vminpu=0.8 Vmaxpu=1.2 model=1 kW=1.6746299650392789 kvar=0.594727774010976 Phases=1 yearly=res_kw_1276_pu

New Load.load_p1ulv11054_1 conn=wye bus1=p1ulv11054.1 kV=0.12 Vminpu=0.8 Vmaxpu=1.2 model=1 kW=2.1376631749204993 kvar=0.6218033466021168 Phases=1 yearly=res_kw_93_pu

New Load.load_p1ulv11054_2 conn=wye bus1=p1ulv11054.2 kV=0.12 Vminpu=0.8 Vmaxpu=1.2 model=1 kW=2.1376631749204993 kvar=0.6218033466021168 Phases=1 yearly=res_kw_93_pu

New Load.load_p1ulv11055_1 conn=wye bus1=p1ulv11055.1 kV=0.12 Vminpu=0.8 Vmaxpu=1.2 model=1 kW=2.623267981089487 kvar=1.212519304398851 Phases=1 yearly=res_kw_452_pu

New Load.load_p1ulv11055_2 conn=wye bus1=p1ulv11055.2 kV=0.12 Vminpu=0.8 Vmaxpu=1.2 model=1 kW=2.623267981089487 kvar=1.212519304398851 Phases=1 yearly=res_kw_452_pu

New Load.load_p1ulv11056_1 conn=wye bus1=p1ulv11056.1 kV=0.12 Vminpu=0.8 Vmaxpu=1.2 model=1 kW=2.623267981089487 kvar=1.212519304398851 Phases=1 yearly=res_kw_452_pu

New Load.load_p1ulv11056_2 conn=wye bus1=p1ulv11056.2 kV=0.12 Vminpu=0.8 Vmaxpu=1.2 model=1 kW=2.623267981089487 kvar=1.212519304398851 Phases=1 yearly=res_kw_452_pu

New Load.load_p1ulv11057_1 conn=wye bus1=p1ulv11057.1 kV=0.12 Vminpu=0.8 Vmaxpu=1.2 model=1 kW=2.1376631749204993 kvar=0.6218033466021168 Phases=1 yearly=res_kw_93_pu

New Load.load_p1ulv11057_2 conn=wye bus1=p1ulv11057.2 kV=0.12 Vminpu=0.8 Vmaxpu=1.2 model=1 kW=2.1376631749204993 kvar=0.6218033466021168 Phases=1 yearly=res_kw_93_pu

New Load.load_p1ulv11058_1 conn=wye bus1=p1ulv11058.1 kV=0.12 Vminpu=0.8 Vmaxpu=1.2 model=1 kW=2.1376631749204993 kvar=0.6218033466021168 Phases=1 yearly=res_kw_93_pu

New Load.load_p1ulv11058_2 conn=wye bus1=p1ulv11058.2 kV=0.12 Vminpu=0.8 Vmaxpu=1.2 model=1 kW=2.1376631749204993 kvar=0.6218033466021168 Phases=1 yearly=res_kw_93_pu

New Load.load_p1ulv11059_1 conn=wye bus1=p1ulv11059.1 kV=0.12 Vminpu=0.8 Vmaxpu=1.2 model=1 kW=1.8618983584330409 kvar=0.7337589993741062 Phases=1 yearly=res_kw_141_pu

New Load.load_p1ulv11059_2 conn=wye bus1=p1ulv11059.2 kV=0.12 Vminpu=0.8 Vmaxpu=1.2 model=1 kW=1.8618983584330409 kvar=0.7337589993741062 Phases=1 yearly=res_kw_141_pu

New Load.load_p1ulv11060_1 conn=wye bus1=p1ulv11060.1 kV=0.12 Vminpu=0.8 Vmaxpu=1.2 model=1 kW=2.47170658682663 kvar=0.5373197382437959 Phases=1 yearly=res_kw_39_pu

New Load.load_p1ulv11060_2 conn=wye bus1=p1ulv11060.2 kV=0.12 Vminpu=0.8 Vmaxpu=1.2 model=1 kW=2.47170658682663 kvar=0.5373197382437959 Phases=1 yearly=res_kw_39_pu

New Load.load_p1ulv11061_1 conn=wye bus1=p1ulv11061.1 kV=0.12 Vminpu=0.8 Vmaxpu=1.2 model=1 kW=2.623267981089487 kvar=1.212519304398851 Phases=1 yearly=res_kw_452_pu

New Load.load_p1ulv11061_2 conn=wye bus1=p1ulv11061.2 kV=0.12 Vminpu=0.8 Vmaxpu=1.2 model=1 kW=2.623267981089487 kvar=1.212519304398851 Phases=1 yearly=res_kw_452_pu

New Load.load_p1ulv11062_1 conn=wye bus1=p1ulv11062.1 kV=0.12 Vminpu=0.8 Vmaxpu=1.2 model=1 kW=2.1376631749204993 kvar=0.6218033466021168 Phases=1 yearly=res_kw_93_pu

New Load.load_p1ulv11062_2 conn=wye bus1=p1ulv11062.2 kV=0.12 Vminpu=0.8 Vmaxpu=1.2 model=1 kW=2.1376631749204993 kvar=0.6218033466021168 Phases=1 yearly=res_kw_93_pu

New Load.load_p1ulv11063_1 conn=wye bus1=p1ulv11063.1 kV=0.12 Vminpu=0.8 Vmaxpu=1.2 model=1 kW=4.788649591238137 kvar=1.023651375705972 Phases=1 yearly=res_kw_512_pu

New Load.load_p1ulv11063_2 conn=wye bus1=p1ulv11063.2 kV=0.12 Vminpu=0.8 Vmaxpu=1.2 model=1 kW=4.788649591238137 kvar=1.023651375705972 Phases=1 yearly=res_kw_512_pu

New Load.load_p1ulv11064_1 conn=wye bus1=p1ulv11064.1 kV=0.12 Vminpu=0.8 Vmaxpu=1.2 model=1 kW=2.1376631749204993 kvar=0.6218033466021168 Phases=1 yearly=res_kw_93_pu

New Load.load_p1ulv11064_2 conn=wye bus1=p1ulv11064.2 kV=0.12 Vminpu=0.8 Vmaxpu=1.2 model=1 kW=2.1376631749204993 kvar=0.6218033466021168 Phases=1 yearly=res_kw_93_pu

New Load.load_p1ulv11065_1 conn=wye bus1=p1ulv11065.1 kV=0.12 Vminpu=0.8 Vmaxpu=1.2 model=1 kW=2.623267981089487 kvar=1.212519304398851 Phases=1 yearly=res_kw_452_pu

New Load.load_p1ulv11065_2 conn=wye bus1=p1ulv11065.2 kV=0.12 Vminpu=0.8 Vmaxpu=1.2 model=1 kW=2.623267981089487 kvar=1.212519304398851 Phases=1 yearly=res_kw_452_pu

New Load.load_p1ulv11066_1 conn=wye bus1=p1ulv11065.1 kV=0.12 Vminpu=0.8 Vmaxpu=1.2 model=1 kW=2.1376631749204993 kvar=0.6218033466021168 Phases=1 yearly=res_kw_93_pu
