New Load.load_p1ulv1073_1 conn=wye bus1=p1ulv1073.1 kV=0.12 Vminpu=0.8 Vmaxpu=1.2 model=1 kW=1.8636614682402992 kvar=0.5015179682387616 Phases=1 yearly=res_kw_532_pu

New Load.load_p1ulv1073_2 conn=wye bus1=p1ulv1073.2 kV=0.12 Vminpu=0.8 Vmaxpu=1.2 model=1 kW=1.8636614682402992 kvar=0.5015179682387616 Phases=1 yearly=res_kw_532_pu

New Load.load_p1ulv1074_1 conn=wye bus1=p1ulv1074.1 kV=0.12 Vminpu=0.8 Vmaxpu=1.2 model=1 kW=5.5240035557650415 kvar=1.3946316843882214 Phases=1 yearly=res_kw_531_pu

New Load.load_p1ulv1074_2 conn=wye bus1=p1ulv1074.2 kV=0.12 Vminpu=0.8 Vmaxpu=1.2 model=1 kW=5.5240035557650415 kvar=1.3946316843882214 Phases=1 yearly=res_kw_531_pu

New Load.load_p1ulv1075_1 conn=wye bus1=p1ulv1075.1 kV=0.12 Vminpu=0.8 Vmaxpu=1.2 model=1 kW=4.359410160991208 kvar=0.7703346328307125 Phases=1 yearly=res_kw_470_pu

New Load.load_p1ulv1075_2 conn=wye bus1=p1ulv1075.2 kV=0.12 Vminpu=0.8 Vmaxpu=1.2 model=1 kW=4.359410160991208 kvar=0.7703346328307125 Phases=1 yearly=res_kw_470_pu

New Load.load_p1ulv1076_1 conn=wye bus1=p1ulv1076.1 kV=0.12 Vminpu=0.8 Vmaxpu=1.2 model=1 kW=3.789884331965197 kvar=1.0036576715582408 Phases=1 yearly=res_kw_670_pu

New Load.load_p1ulv1076_2 conn=wye bus1=p1ulv1076.2 kV=0.12 Vminpu=0.8 Vmaxpu=1.2 model=1 kW=3.789884331965197 kvar=1.0036576715582408 Phases=1 yearly=res_kw_670_pu

New Load.load_p1ulv1077_1 conn=wye bus1=p1ulv1077.1 kV=0.12 Vminpu=0.8 Vmaxpu=1.2 model=1 kW=6.495867403886884 kvar=1.0074089308244782 Phases=1 yearly=res_kw_597_pu

New Load.load_p1ulv1077_2 conn=wye bus1=p1ulv1077.2 kV=0.12 Vminpu=0.8 Vmaxpu=1.2 model=1 kW=6.495867403886884 kvar=1.0074089308244782 Phases=1 yearly=res_kw_597_pu

New Load.load_p1ulv1078_1 conn=wye bus1=p1ulv1078.1 kV=0.12 Vminpu=0.8 Vmaxpu=1.2 model=1 kW=4.16464238338737 kvar=0.9759614008792458 Phases=1 yearly=res_kw_968_pu

New Load.load_p1ulv1078_2 conn=wye bus1=p1ulv1078.2 kV=0.12 Vminpu=0.8 Vmaxpu=1.2 model=1 kW=4.16464238338737 kvar=0.9759614008792458 Phases=1 yearly=res_kw_968_pu

New Load.load_p1ulv1080_1 conn=wye bus1=p1ulv1080.1 kV=0.12 Vminpu=0.8 Vmaxpu=1.2 model=1 kW=3.469521951913567 kvar=0.9490620687569232 Phases=1 yearly=res_kw_825_pu

New Load.load_p1ulv1080_2 conn=wye bus1=p1ulv1080.2 kV=0.12 Vminpu=0.8 Vmaxpu=1.2 model=1 kW=3.469521951913567 kvar=0.9490620687569232 Phases=1 yearly=res_kw_825_pu

New Load.load_p1ulv1081_1 conn=wye bus1=p1ulv1081.1 kV=0.12 Vminpu=0.8 Vmaxpu=1.2 model=1 kW=5.121080771859233 kvar=1.1807848049623457 Phases=1 yearly=res_kw_691_pu

New Load.load_p1ulv1081_2 conn=wye bus1=p1ulv1081.2 kV=0.12 Vminpu=0.8 Vmaxpu=1.2 model=1 kW=5.121080771859233 kvar=1.1807848049623457 Phases=1 yearly=res_kw_691_pu

New Load.load_p1ulv1082_1 conn=wye bus1=p1ulv1082.1 kV=0.12 Vminpu=0.8 Vmaxpu=1.2 model=1 kW=4.78815623948431 kvar=1.2110296754961107 Phases=1 yearly=res_kw_842_pu

New Load.load_p1ulv1082_2 conn=wye bus1=p1ulv1082.2 kV=0.12 Vminpu=0.8 Vmaxpu=1.2 model=1 kW=4.78815623948431 kvar=1.2110296754961107 Phases=1 yearly=res_kw_842_pu

New Load.load_p1ulv1084_1 conn=wye bus1=p1ulv1084.1 kV=0.12 Vminpu=0.8 Vmaxpu=1.2 model=1 kW=6.897997484512368 kvar=1.5073573946072503 Phases=1 yearly=res_kw_40_pu

New Load.load_p1ulv1084_2 conn=wye bus1=p1ulv1084.2 kV=0.12 Vminpu=0.8 Vmaxpu=1.2 model=1 kW=6.897997484512368 kvar=1.5073573946072503 Phases=1 yearly=res_kw_40_pu

New Load.load_p1ulv1087_1 conn=wye bus1=p1ulv1087.1 kV=0.12 Vminpu=0.8 Vmaxpu=1.2 model=1 kW=3.3701610259235064 kvar=1.065454990641787 Phases=1 yearly=res_kw_1037_pu

New Load.load_p1ulv1087_2 conn=wye bus1=p1ulv1087.2 kV=0.12 Vminpu=0.8 Vmaxpu=1.2 model=1 kW=3.3701610259235064 kvar=1.065454990641787 Phases=1 yearly=res_kw_1037_pu

New Load.load_p1ulv1088_1 conn=wye bus1=p1ulv1088.1 kV=0.12 Vminpu=0.8 Vmaxpu=1.2 model=1 kW=3.4468581914223817 kvar=1.1411197390818253 Phases=1 yearly=res_kw_250_pu

New Load.load_p1ulv1088_2 conn=wye bus1=p1ulv1088.2 kV=0.12 Vminpu=0.8 Vmaxpu=1.2 model=1 kW=3.4468581914223817 kvar=1.1411197390818253 Phases=1 yearly=res_kw_250_pu

New Load.load_p1ulv1089_1 conn=wye bus1=p1ulv1089.1 kV=0.12 Vminpu=0.8 Vmaxpu=1.2 model=1 kW=10.763137052551695 kvar=1.7145459594113484 Phases=1 yearly=res_kw_505_pu

New Load.load_p1ulv1089_2 conn=wye bus1=p1ulv1089.2 kV=0.12 Vminpu=0.8 Vmaxpu=1.2 model=1 kW=10.763137052551695 kvar=1.7145459594113484 Phases=1 yearly=res_kw_505_pu

New Load.load_p1ulv1090_1 conn=wye bus1=p1ulv1090.1 kV=0.12 Vminpu=0.8 Vmaxpu=1.2 model=1 kW=4.78815623948431 kvar=1.2110296754961107 Phases=1 yearly=res_kw_842_pu

New Load.load_p1ulv1090_2 conn=wye bus1=p1ulv1090.2 kV=0.12 Vminpu=0.8 Vmaxpu=1.2 model=1 kW=4.78815623948431 kvar=1.2110296754961107 Phases=1 yearly=res_kw_842_pu

New Load.load_p1ulv1096_1 conn=wye bus1=p1ulv1096.1 kV=0.12 Vminpu=0.8 Vmaxpu=1.2 model=1 kW=9.591249211904968 kvar=2.0347748075499026 Phases=1 yearly=res_kw_319_pu

New Load.load_p1ulv1096_2 conn=wye bus1=p1ulv1096.2 kV=0.12 Vminpu=0.8 Vmaxpu=1.2 model=1 kW=9.591249211904968 kvar=2.0347748075499026 Phases=1 yearly=res_kw_319_pu

New Load.load_p1ulv1097 conn=wye bus1=p1ulv1097.1.2.3 kV=0.48 Vminpu=0.8 Vmaxpu=1.2 model=1 kW=17.66011877759799 kvar=0.6621589123138862 Phases=3 yearly=res_kw_630_pu

New Load.load_p1ulv1098_1 conn=wye bus1=p1ulv1098.1 kV=0.12 Vminpu=0.8 Vmaxpu=1.2 model=1 kW=3.8748715750127736 kvar=1.5614372175332516 Phases=1 yearly=res_kw_517_pu

New Load.load_p1ulv1098_2 conn=wye bus1=p1ulv1098.2 kV=0.12 Vminpu=0.8 Vmaxpu=1.2 model=1 kW=3.8748715750127736 kvar=1.5614372175332516 Phases=1 yearly=res_kw_517_pu

New Load.load_p1ulv1102_1 conn=wye bus1=p1ulv1102.1 kV=0.12 Vminpu=0.8 Vmaxpu=1.2 model=1 kW=18.487291050551754 kvar=3.8726939013399893 Phases=1 yearly=res_kw_271_pu

New Load.load_p1ulv1102_2 conn=wye bus1=p1ulv1102.2 kV=0.12 Vminpu=0.8 Vmaxpu=1.2 model=1 kW=18.487291050551754 kvar=3.8726939013399893 Phases=1 yearly=res_kw_271_pu

New Load.load_p1ulv1103_1 conn=wye bus1=p1ulv1103.1 kV=0.12 Vminpu=0.8 Vmaxpu=1.2 model=1 kW=7.935406333880378 kvar=2.9734713630513365 Phases=1 yearly=res_kw_272_pu

New Load.load_p1ulv1103_2 conn=wye bus1=p1ulv1103.2 kV=0.12 Vminpu=0.8 Vmaxpu=1.2 model=1 kW=7.935406333880378 kvar=2.9734713630513365 Phases=1 yearly=res_kw_272_pu

New Load.load_p1ulv1104_1 conn=wye bus1=p1ulv1104.1 kV=0.12 Vminpu=0.8 Vmaxpu=1.2 model=1 kW=5.675346369339635 kvar=1.238985226090579 Phases=1 yearly=res_kw_1186_pu

New Load.load_p1ulv1104_2 conn=wye bus1=p1ulv1104.2 kV=0.12 Vminpu=0.8 Vmaxpu=1.2 model=1 kW=5.675346369339635 kvar=1.238985226090579 Phases=1 yearly=res_kw_1186_pu

New Load.load_p1ulv1105_1 conn=wye bus1=p1ulv1105.1 kV=0.12 Vminpu=0.8 Vmaxpu=1.2 model=1 kW=8.01962100453296 kvar=1.9011506674959975 Phases=1 yearly=res_kw_380_pu

New Load.load_p1ulv1105_2 conn=wye bus1=p1ulv1105.2 kV=0.12 Vminpu=0.8 Vmaxpu=1.2 model=1 kW=8.01962100453296 kvar=1.9011506674959975 Phases=1 yearly=res_kw_380_pu

New Load.load_p1ulv1107_1 conn=wye bus1=p1ulv1107.1 kV=0.12 Vminpu=0.8 Vmaxpu=1.2 model=1 kW=2.6241521841182514 kvar=0.8429304779950015 Phases=1 yearly=res_kw_33_pu

New Load.load_p1ulv1107_2 conn=wye bus1=p1ulv1107.2 kV=0.12 Vminpu=0.8 Vmaxpu=1.2 model=1 kW=2.6241521841182514 kvar=0.8429304779950015 Phases=1 yearly=res_kw_33_pu

New Load.load_p1ulv1108_1 conn=wye bus1=p1ulv1108.1 kV=0.12 Vminpu=0.8 Vmaxpu=1.2 model=1 kW=10.375628907780863 kvar=4.616486224330442 Phases=1 yearly=res_kw_1267_pu

New Load.load_p1ulv1108_2 conn=wye bus1=p1ulv1108.2 kV=0.12 Vminpu=0.8 Vmaxpu=1.2 model=1 kW=10.375628907780863 kvar=4.616486224330442 Phases=1 yearly=res_kw_1267_pu

New Load.load_p1ulv2827_1 conn=wye bus1=p1ulv2827.1 kV=0.12 Vminpu=0.8 Vmaxpu=1.2 model=1 kW=4.273181988238683 kvar=1.110614151275591 Phases=1 yearly=res_kw_1113_pu

New Load.load_p1ulv2827_2 conn=wye bus1=p1ulv2827.2 kV=0.12 Vminpu=0.8 Vmaxpu=1.2 model=1 kW=4.273181988238683 kvar=1.110614151275591 Phases=1 yearly=res_kw_1113_pu

New Load.load_p1ulv2829_1 conn=wye bus1=p1ulv2829.1 kV=0.12 Vminpu=0.8 Vmaxpu=1.2 model=1 kW=4.889402611994926 kvar=1.0559288347164948 Phases=1 yearly=res_kw_1160_pu

New Load.load_p1ulv2829_2 conn=wye bus1=p1ulv2829.2 kV=0.12 Vminpu=0.8 Vmaxpu=1.2 model=1 kW=4.889402611994926 kvar=1.0559288347164948 Phases=1 yearly=res_kw_1160_pu

New Load.load_p1ulv2830_1 conn=wye bus1=p1ulv2830.1 kV=0.12 Vminpu=0.8 Vmaxpu=1.2 model=1 kW=9.591249211904968 kvar=2.0347748075499026 Phases=1 yearly=res_kw_319_pu

New Load.load_p1ulv2830_2 conn=wye bus1=p1ulv2830.2 kV=0.12 Vminpu=0.8 Vmaxpu=1.2 model=1 kW=9.591249211904968 kvar=2.0347748075499026 Phases=1 yearly=res_kw_319_pu

New Load.load_p1ulv2831_1 conn=wye bus1=p1ulv2831.1 kV=0.12 Vminpu=0.8 Vmaxpu=1.2 model=1 kW=6.136100367362728 kvar=1.4521187609701354 Phases=1 yearly=res_kw_362_pu

New Load.load_p1ulv2831_2 conn=wye bus1=p1ulv2831.2 kV=0.12 Vminpu=0.8 Vmaxpu=1.2 model=1 kW=6.136100367362728 kvar=1.4521187609701354 Phases=1 yearly=res_kw_362_pu

New Load.load_p1ulv2832_1 conn=wye bus1=p1ulv2832.1 kV=0.12 Vminpu=0.8 Vmaxpu=1.2 model=1 kW=2.40000228705824 kvar=1.0173787262529668 Phases=1 yearly=res_kw_1205_pu

New Load.load_p1ulv2832_2 conn=wye bus1=p1ulv2832.2 kV=0.12 Vminpu=0.8 Vmaxpu=1.2 model=1 kW=2.40000228705824 kvar=1.0173787262529668 Phases=1 yearly=res_kw_1205_pu

New Load.load_p1ulv2833_1 conn=wye bus1=p1ulv2833.1 kV=0.12 Vminpu=0.8 Vmaxpu=1.2 model=1 kW=4.788649591238137 kvar=1.023651375705972 Phases=1 yearly=res_kw_512_pu

New Load.load_p1ulv2833_2 conn=wye bus1=p1ulv2833.2 kV=0.12 Vminpu=0.8 Vmaxpu=1.2 model=1 kW=4.788649591238137 kvar=1.023651375705972 Phases=1 yearly=res_kw_512_pu

New Load.load_p1ulv2834_1 conn=wye bus1=p1ulv2834.1 kV=0.12 Vminpu=0.8 Vmaxpu=1.2 model=1 kW=3.8029744718879392 kvar=1.1462670306842289 Phases=1 yearly=res_kw_263_pu

New Load.load_p1ulv2834_2 conn=wye bus1=p1ulv2834.2 kV=0.12 Vminpu=0.8 Vmaxpu=1.2 model=1 kW=3.8029744718879392 kvar=1.1462670306842289 Phases=1 yearly=res_kw_263_pu

New Load.load_p1ulv2835_1 conn=wye bus1=p1ulv2835.1 kV=0.12 Vminpu=0.8 Vmaxpu=1.2 model=1 kW=9.341738473663403 kvar=2.018548151169967 Phases=1 yearly=res_kw_504_pu

New Load.load_p1ulv2835_2 conn=wye bus1=p1ulv2835.2 kV=0.12 Vminpu=0.8 Vmaxpu=1.2 model=1 kW=9.341738473663403 kvar=2.018548151169967 Phases=1 yearly=res_kw_504_pu

New Load.load_p1ulv2837 conn=wye bus1=p1ulv2837.1.2.3 kV=0.48 Vminpu=0.8 Vmaxpu=1.2 model=1 kW=43.73505631398508 kvar=5.0290236670440045 Phases=3 yearly=res_kw_598_pu

New Load.load_p1ulv2838_1 conn=wye bus1=p1ulv2838.1 kV=0.12 Vminpu=0.8 Vmaxpu=1.2 model=1 kW=4.78815623948431 kvar=1.2110296754961107 Phases=1 yearly=res_kw_842_pu

New Load.load_p1ulv2838_2 conn=wye bus1=p1ulv2838.2 kV=0.12 Vminpu=0.8 Vmaxpu=1.2 model=1 kW=4.78815623948431 kvar=1.2110296754961107 Phases=1 yearly=res_kw_842_pu

New Load.load_p1ulv2839 conn=wye bus1=p1ulv2839.1.2.3 kV=0.48 Vminpu=0.8 Vmaxpu=1.2 model=1 kW=90.84575360320908 kvar=22.30335579553028 Phases=3 yearly=com_kw_13363_pu

New Load.load_p1ulv2840_1 conn=wye bus1=p1ulv2840.1 kV=0.12 Vminpu=0.8 Vmaxpu=1.2 model=1 kW=13.251431311430247 kvar=0.1493407165487586 Phases=1 yearly=com_kw_14976_pu

New Load.load_p1ulv2840_2 conn=wye bus1=p1ulv2840.2 kV=0.12 Vminpu=0.8 Vmaxpu=1.2 model=1 kW=13.251431311430247 kvar=0.1493407165487586 Phases=1 yearly=com_kw_14976_pu

New Load.load_p1ulv2841_1 conn=wye bus1=p1ulv2841.1 kV=0.12 Vminpu=0.8 Vmaxpu=1.2 model=1 kW=18.844115916391704 kvar=4.2885790500311325 Phases=1 yearly=res_kw_408_pu

New Load.load_p1ulv2841_2 conn=wye bus1=p1ulv2841.2 kV=0.12 Vminpu=0.8 Vmaxpu=1.2 model=1 kW=18.844115916391704 kvar=4.2885790500311325 Phases=1 yearly=res_kw_408_pu

New Load.load_p1ulv2842_1 conn=wye bus1=p1ulv2842.1 kV=0.12 Vminpu=0.8 Vmaxpu=1.2 model=1 kW=2.1894046505184286 kvar=0.7281040757251952 Phases=1 yearly=res_kw_1042_pu

New Load.load_p1ulv2842_2 conn=wye bus1=p1ulv2842.2 kV=0.12 Vminpu=0.8 Vmaxpu=1.2 model=1 kW=2.1894046505184286 kvar=0.7281040757251952 Phases=1 yearly=res_kw_1042_pu

New Load.load_p1ulv2843_1 conn=wye bus1=p1ulv2843.1 kV=0.12 Vminpu=0.8 Vmaxpu=1.2 model=1 kW=2.605021030189827 kvar=1.0007509371876184 Phases=1 yearly=res_kw_24_pu

New Load.load_p1ulv2843_2 conn=wye bus1=p1ulv2843.2 kV=0.12 Vminpu=0.8 Vmaxpu=1.2 model=1 kW=2.605021030189827 kvar=1.0007509371876184 Phases=1 yearly=res_kw_24_pu

New Load.load_p1ulv2844_1 conn=wye bus1=p1ulv2844.1 kV=0.12 Vminpu=0.8 Vmaxpu=1.2 model=1 kW=13.251431311430247 kvar=0.1493407165487586 Phases=1 yearly=com_kw_14976_pu

New Load.load_p1ulv2844_2 conn=wye bus1=p1ulv2844.2 kV=0.12 Vminpu=0.8 Vmaxpu=1.2 model=1 kW=13.251431311430247 kvar=0.1493407165487586 Phases=1 yearly=com_kw_14976_pu

New Load.load_p1ulv2859_1 conn=wye bus1=p1ulv2859.1 kV=0.12 Vminpu=0.8 Vmaxpu=1.2 model=1 kW=4.081735511976485 kvar=0.9882394625849078 Phases=1 yearly=com_kw_14650_pu

New Load.load_p1ulv2859_2 conn=wye bus1=p1ulv2859.2 kV=0.12 Vminpu=0.8 Vmaxpu=1.2 model=1 kW=4.081735511976485 kvar=0.9882394625849078 Phases=1 yearly=com_kw_14650_pu

New Load.load_p1ulv2881 conn=wye bus1=p1ulv2881.1.2.3 kV=0.48 Vminpu=0.8 Vmaxpu=1.2 model=1 kW=43.73505631398508 kvar=5.0290236670440045 Phases=3 yearly=res_kw_598_pu

New Load.load_p1ulv2890_1 conn=wye bus1=p1ulv2890.1 kV=0.12 Vminpu=0.8 Vmaxpu=1.2 model=1 kW=8.01962100453296 kvar=1.9011506674959975 Phases=1 yearly=res_kw_380_pu

New Load.load_p1ulv2890_2 conn=wye bus1=p1ulv2890.2 kV=0.12 Vminpu=0.8 Vmaxpu=1.2 model=1 kW=8.01962100453296 kvar=1.9011506674959975 Phases=1 yearly=res_kw_380_pu

New Load.load_p1ulv2899_1 conn=wye bus1=p1ulv2899.1 kV=0.12 Vminpu=0.8 Vmaxpu=1.2 model=1 kW=4.7264639008757365 kvar=1.36553634213978 Phases=1 yearly=res_kw_1220_pu

New Load.load_p1ulv2899_2 conn=wye bus1=p1ulv2899.2 kV=0.12 Vminpu=0.8 Vmaxpu=1.2 model=1 kW=4.7264639008757365 kvar=1.36553634213978 Phases=1 yearly=res_kw_1220_pu

New Load.load_p1ulv2900_1 conn=wye bus1=p1ulv2900.1 kV=0.12 Vminpu=0.8 Vmaxpu=1.2 model=1 kW=4.4719654544990375 kvar=1.0992469987144322 Phases=1 yearly=res_kw_1157_pu

New Load.load_p1ulv2900_2 conn=wye bus1=p1ulv2900.2 kV=0.12 Vminpu=0.8 Vmaxpu=1.2 model=1 kW=4.4719654544990375 kvar=1.0992469987144322 Phases=1 yearly=res_kw_1157_pu

New Load.load_p1ulv2901_1 conn=wye bus1=p1ulv2901.1 kV=0.12 Vminpu=0.8 Vmaxpu=1.2 model=1 kW=5.5396149838334106 kvar=1.3495096504699533 Phases=1 yearly=res_kw_1273_pu

New Load.load_p1ulv2901_2 conn=wye bus1=p1ulv2901.2 kV=0.12 Vminpu=0.8 Vmaxpu=1.2 model=1 kW=5.5396149838334106 kvar=1.3495096504699533 Phases=1 yearly=res_kw_1273_pu

New Load.load_p1ulv2902_1 conn=wye bus1=p1ulv2902.1 kV=0.12 Vminpu=0.8 Vmaxpu=1.2 model=1 kW=6.702223593657906 kvar=1.4906391030592414 Phases=1 yearly=res_kw_199_pu

New Load.load_p1ulv2902_2 conn=wye bus1=p1ulv2902.2 kV=0.12 Vminpu=0.8 Vmaxpu=1.2 model=1 kW=6.702223593657906 kvar=1.4906391030592414 Phases=1 yearly=res_kw_199_pu

New Load.load_p1ulv2903_1 conn=wye bus1=p1ulv2903.1 kV=0.12 Vminpu=0.8 Vmaxpu=1.2 model=1 kW=4.618899690065006 kvar=0.6695294955650374 Phases=1 yearly=res_kw_1224_pu

New Load.load_p1ulv2903_2 conn=wye bus1=p1ulv2903.2 kV=0.12 Vminpu=0.8 Vmaxpu=1.2 model=1 kW=4.618899690065006 kvar=0.6695294955650374 Phases=1 yearly=res_kw_1224_pu

New Load.load_p1ulv2904_1 conn=wye bus1=p1ulv2904.1 kV=0.12 Vminpu=0.8 Vmaxpu=1.2 model=1 kW=2.1894046505184286 kvar=0.7281040757251952 Phases=1 yearly=res_kw_1042_pu

New Load.load_p1ulv2904_2 conn=wye bus1=p1ulv2904.2 kV=0.12 Vminpu=0.8 Vmaxpu=1.2 model=1 kW=2.1894046505184286 kvar=0.7281040757251952 Phases=1 yearly=res_kw_1042_pu

New Load.load_p1ulv2912_1 conn=wye bus1=p1ulv2912.1 kV=0.12 Vminpu=0.8 Vmaxpu=1.2 model=1 kW=2.6241521841182514 kvar=0.8429304779950015 Phases=1 yearly=res_kw_33_pu

New Load.load_p1ulv2912_2 conn=wye bus1=p1ulv2912.2 kV=0.12 Vminpu=0.8 Vmaxpu=1.2 model=1 kW=2.6241521841182514 kvar=0.8429304779950015 Phases=1 yearly=res_kw_33_pu

New Load.load_p1ulv2916_1 conn=wye bus1=p1ulv2916.1 kV=0.12 Vminpu=0.8 Vmaxpu=1.2 model=1 kW=18.487291050551754 kvar=3.8726939013399893 Phases=1 yearly=res_kw_271_pu

New Load.load_p1ulv2916_2 conn=wye bus1=p1ulv2916.2 kV=0.12 Vminpu=0.8 Vmaxpu=1.2 model=1 kW=18.487291050551754 kvar=3.8726939013399893 Phases=1 yearly=res_kw_271_pu

New Load.load_p1ulv2918 conn=wye bus1=p1ulv2918.1.2.3 kV=0.48 Vminpu=0.8 Vmaxpu=1.2 model=1 kW=27.31413429007533 kvar=2.0116721357119838 Phases=3 yearly=res_kw_123_pu

New Load.load_p1ulv2919_1 conn=wye bus1=p1ulv2919.1 kV=0.12 Vminpu=0.8 Vmaxpu=1.2 model=1 kW=4.359410160991208 kvar=0.7703346328307125 Phases=1 yearly=res_kw_470_pu

New Load.load_p1ulv2919_2 conn=wye bus1=p1ulv2919.2 kV=0.12 Vminpu=0.8 Vmaxpu=1.2 model=1 kW=4.359410160991208 kvar=0.7703346328307125 Phases=1 yearly=res_kw_470_pu

New Load.load_p1ulv2921_1 conn=wye bus1=p1ulv2921.1 kV=0.12 Vminpu=0.8 Vmaxpu=1.2 model=1 kW=5.942686091683347 kvar=1.452957393533487 Phases=1 yearly=res_kw_772_pu

New Load.load_p1ulv2921_2 conn=wye bus1=p1ulv2921.2 kV=0.12 Vminpu=0.8 Vmaxpu=1.2 model=1 kW=5.942686091683347 kvar=1.452957393533487 Phases=1 yearly=res_kw_772_pu

New Load.load_p1ulv2922_1 conn=wye bus1=p1ulv2922.1 kV=0.12 Vminpu=0.8 Vmaxpu=1.2 model=1 kW=8.447919937810639 kvar=4.074999759912348 Phases=1 yearly=res_kw_461_pu

New Load.load_p1ulv2922_2 conn=wye bus1=p1ulv2922.2 kV=0.12 Vminpu=0.8 Vmaxpu=1.2 model=1 kW=8.447919937810639 kvar=4.074999759912348 Phases=1 yearly=res_kw_461_pu

New Load.load_p1ulv2923_1 conn=wye bus1=p1ulv2923.1 kV=0.12 Vminpu=0.8 Vmaxpu=1.2 model=1 kW=4.897278139879629 kvar=1.0793580648076895 Phases=1 yearly=res_kw_645_pu

New Load.load_p1ulv2923_2 conn=wye bus1=p1ulv2923.2 kV=0.12 Vminpu=0.8 Vmaxpu=1.2 model=1 kW=4.897278139879629 kvar=1.0793580648076895 Phases=1 yearly=res_kw_645_pu

New Load.load_p1ulv2924_1 conn=wye bus1=p1ulv2924.1 kV=0.12 Vminpu=0.8 Vmaxpu=1.2 model=1 kW=2.4402285312138985 kvar=0.9342273883677934 Phases=1 yearly=res_kw_409_pu

New Load.load_p1ulv2924_2 conn=wye bus1=p1ulv2924.2 kV=0.12 Vminpu=0.8 Vmaxpu=1.2 model=1 kW=2.4402285312138985 kvar=0.9342273883677934 Phases=1 yearly=res_kw_409_pu

New Load.load_p1ulv2925_1 conn=wye bus1=p1ulv2925.1 kV=0.12 Vminpu=0.8 Vmaxpu=1.2 model=1 kW=6.702223593657906 kvar=1.4906391030592414 Phases=1 yearly=res_kw_199_pu

New Load.load_p1ulv2925_2 conn=wye bus1=p1ulv2925.2 kV=0.12 Vminpu=0.8 Vmaxpu=1.2 model=1 kW=6.702223593657906 kvar=1.4906391030592414 Phases=1 yearly=res_kw_199_pu

New Load.load_p1ulv2926_1 conn=wye bus1=p1ulv2926.1 kV=0.12 Vminpu=0.8 Vmaxpu=1.2 model=1 kW=7.088530083600876 kvar=2.6134476319600712 Phases=1 yearly=res_kw_267_pu

New Load.load_p1ulv2926_2 conn=wye bus1=p1ulv2926.2 kV=0.12 Vminpu=0.8 Vmaxpu=1.2 model=1 kW=7.088530083600876 kvar=2.6134476319600712 Phases=1 yearly=res_kw_267_pu

New Load.load_p1ulv2927_1 conn=wye bus1=p1ulv2927.1 kV=0.12 Vminpu=0.8 Vmaxpu=1.2 model=1 kW=2.6241521841182514 kvar=0.8429304779950015 Phases=1 yearly=res_kw_33_pu

New Load.load_p1ulv2927_2 conn=wye bus1=p1ulv2927.2 kV=0.12 Vminpu=0.8 Vmaxpu=1.2 model=1 kW=2.6241521841182514 kvar=0.8429304779950015 Phases=1 yearly=res_kw_33_pu

New Load.load_p1ulv2928_1 conn=wye bus1=p1ulv2928.1 kV=0.12 Vminpu=0.8 Vmaxpu=1.2 model=1 kW=1.8636614682402992 kvar=0.5015179682387616 Phases=1 yearly=res_kw_532_pu

New Load.load_p1ulv2928_2 conn=wye bus1=p1ulv2928.2 kV=0.12 Vminpu=0.8 Vmaxpu=1.2 model=1 kW=1.8636614682402992 kvar=0.5015179682387616 Phases=1 yearly=res_kw_532_pu

New Load.load_p1ulv2929_1 conn=wye bus1=p1ulv2929.1 kV=0.12 Vminpu=0.8 Vmaxpu=1.2 model=1 kW=2.252586941983099 kvar=1.0135983600233158 Phases=1 yearly=res_kw_853_pu

New Load.load_p1ulv2929_2 conn=wye bus1=p1ulv2929.2 kV=0.12 Vminpu=0.8 Vmaxpu=1.2 model=1 kW=2.252586941983099 kvar=1.0135983600233158 Phases=1 yearly=res_kw_853_pu

New Load.load_p1ulv2930_1 conn=wye bus1=p1ulv2930.1 kV=0.12 Vminpu=0.8 Vmaxpu=1.2 model=1 kW=2.6241521841182514 kvar=0.8429304779950015 Phases=1 yearly=res_kw_33_pu

New Load.load_p1ulv2930_2 conn=wye bus1=p1ulv2930.2 kV=0.12 Vminpu=0.8 Vmaxpu=1.2 model=1 kW=2.6241521841182514 kvar=0.8429304779950015 Phases=1 yearly=res_kw_33_pu

New Load.load_p1ulv2931_1 conn=wye bus1=p1ulv2931.1 kV=0.12 Vminpu=0.8 Vmaxpu=1.2 model=1 kW=3.3641909207712115 kvar=0.9284266244461494 Phases=1 yearly=res_kw_523_pu

New Load.load_p1ulv2931_2 conn=wye bus1=p1ulv2931.2 kV=0.12 Vminpu=0.8 Vmaxpu=1.2 model=1 kW=3.3641909207712115 kvar=0.9284266244461494 Phases=1 yearly=res_kw_523_pu

New Load.load_p1ulv2932_1 conn=wye bus1=p1ulv2932.1 kV=0.12 Vminpu=0.8 Vmaxpu=1.2 model=1 kW=3.469521951913567 kvar=0.9490620687569232 Phases=1 yearly=res_kw_825_pu

New Load.load_p1ulv2932_2 conn=wye bus1=p1ulv2932.2 kV=0.12 Vminpu=0.8 Vmaxpu=1.2 model=1 kW=3.469521951913567 kvar=0.9490620687569232 Phases=1 yearly=res_kw_825_pu

New Load.load_p1ulv2933_1 conn=wye bus1=p1ulv2933.1 kV=0.12 Vminpu=0.8 Vmaxpu=1.2 model=1 kW=3.3641909207712115 kvar=0.9284266244461494 Phases=1 yearly=res_kw_523_pu

New Load.load_p1ulv2933_2 conn=wye bus1=p1ulv2933.2 kV=0.12 Vminpu=0.8 Vmaxpu=1.2 model=1 kW=3.3641909207712115 kvar=0.9284266244461494 Phases=1 yearly=res_kw_523_pu

New Load.load_p1ulv2934_1 conn=wye bus1=p1ulv2934.1 kV=0.12 Vminpu=0.8 Vmaxpu=1.2 model=1 kW=6.897997484512368 kvar=1.5073573946072503 Phases=1 yearly=res_kw_40_pu

New Load.load_p1ulv2934_2 conn=wye bus1=p1ulv2934.2 kV=0.12 Vminpu=0.8 Vmaxpu=1.2 model=1 kW=6.897997484512368 kvar=1.5073573946072503 Phases=1 yearly=res_kw_40_pu

New Load.load_p1ulv2935_1 conn=wye bus1=p1ulv2935.1 kV=0.12 Vminpu=0.8 Vmaxpu=1.2 model=1 kW=3.469521951913567 kvar=0.9490620687569232 Phases=1 yearly=res_kw_825_pu

New Load.load_p1ulv2935_2 conn=wye bus1=p1ulv2935.2 kV=0.12 Vminpu=0.8 Vmaxpu=1.2 model=1 kW=3.469521951913567 kvar=0.9490620687569232 Phases=1 yearly=res_kw_825_pu

New Load.load_p1ulv2936_1 conn=wye bus1=p1ulv2936.1 kV=0.12 Vminpu=0.8 Vmaxpu=1.2 model=1 kW=6.495867403886884 kvar=1.0074089308244782 Phases=1 yearly=res_kw_597_pu

New Load.load_p1ulv2936_2 conn=wye bus1=p1ulv2936.2 kV=0.12 Vminpu=0.8 Vmaxpu=1.2 model=1 kW=6.495867403886884 kvar=1.0074089308244782 Phases=1 yearly=res_kw_597_pu

New Load.load_p1ulv2937_1 conn=wye bus1=p1ulv2937.1 kV=0.12 Vminpu=0.8 Vmaxpu=1.2 model=1 kW=3.3701610259235064 kvar=1.065454990641787 Phases=1 yearly=res_kw_1037_pu

New Load.load_p1ulv2937_2 conn=wye bus1=p1ulv2937.2 kV=0.12 Vminpu=0.8 Vmaxpu=1.2 model=1 kW=3.3701610259235064 kvar=1.065454990641787 Phases=1 yearly=res_kw_1037_pu

New Load.load_p1ulv2938_1 conn=wye bus1=p1ulv2938.1 kV=0.12 Vminpu=0.8 Vmaxpu=1.2 model=1 kW=2.623267981089487 kvar=1.212519304398851 Phases=1 yearly=res_kw_452_pu

New Load.load_p1ulv2938_2 conn=wye bus1=p1ulv2938.2 kV=0.12 Vminpu=0.8 Vmaxpu=1.2 model=1 kW=2.623267981089487 kvar=1.212519304398851 Phases=1 yearly=res_kw_452_pu

New Load.load_p1ulv2939_1 conn=wye bus1=p1ulv2936.1 kV=0.12 Vminpu=0.8 Vmaxpu=1.2 model=1 kW=3.3701610259235064 kvar=1.065454990641787 Phases=1 yearly=res_kw_1037_pu

New Load.load_p1ulv2939_2 conn=wye bus1=p1ulv2936.2 kV=0.12 Vminpu=0.8 Vmaxpu=1.2 model=1 kW=3.3701610259235064 kvar=1.065454990641787 Phases=1 yearly=res_kw_1037_pu

New Load.load_p1ulv2940_1 conn=wye bus1=p1ulv2940.1 kV=0.12 Vminpu=0.8 Vmaxpu=1.2 model=1 kW=2.605021030189827 kvar=1.0007509371876184 Phases=1 yearly=res_kw_24_pu

New Load.load_p1ulv2940_2 conn=wye bus1=p1ulv2940.2 kV=0.12 Vminpu=0.8 Vmaxpu=1.2 model=1 kW=2.605021030189827 kvar=1.0007509371876184 Phases=1 yearly=res_kw_24_pu

New Load.load_p1ulv2941_1 conn=wye bus1=p1ulv2941.1 kV=0.12 Vminpu=0.8 Vmaxpu=1.2 model=1 kW=3.3701610259235064 kvar=1.065454990641787 Phases=1 yearly=res_kw_1037_pu

New Load.load_p1ulv2941_2 conn=wye bus1=p1ulv2941.2 kV=0.12 Vminpu=0.8 Vmaxpu=1.2 model=1 kW=3.3701610259235064 kvar=1.065454990641787 Phases=1 yearly=res_kw_1037_pu

New Load.load_p1ulv2942_1 conn=wye bus1=p1ulv2942.1 kV=0.12 Vminpu=0.8 Vmaxpu=1.2 model=1 kW=2.6241521841182514 kvar=0.8429304779950015 Phases=1 yearly=res_kw_33_pu

New Load.load_p1ulv2942_2 conn=wye bus1=p1ulv2942.2 kV=0.12 Vminpu=0.8 Vmaxpu=1.2 model=1 kW=2.6241521841182514 kvar=0.8429304779950015 Phases=1 yearly=res_kw_33_pu

New Load.load_p1ulv2943_1 conn=wye bus1=p1ulv2943.1 kV=0.12 Vminpu=0.8 Vmaxpu=1.2 model=1 kW=2.5047232020051142 kvar=0.6800922265265169 Phases=1 yearly=res_kw_162_pu

New Load.load_p1ulv2943_2 conn=wye bus1=p1ulv2943.2 kV=0.12 Vminpu=0.8 Vmaxpu=1.2 model=1 kW=2.5047232020051142 kvar=0.6800922265265169 Phases=1 yearly=res_kw_162_pu

New Load.load_p1ulv2944_1 conn=wye bus1=p1ulv2944.1 kV=0.12 Vminpu=0.8 Vmaxpu=1.2 model=1 kW=11.519913645766726 kvar=1.865620446374389 Phases=1 yearly=res_kw_754_pu

New Load.load_p1ulv2944_2 conn=wye bus1=p1ulv2944.2 kV=0.12 Vminpu=0.8 Vmaxpu=1.2 model=1 kW=11.519913645766726 kvar=1.865620446374389 Phases=1 yearly=res_kw_754_pu

New Load.load_p1ulv2945_1 conn=wye bus1=p1ulv2945.1 kV=0.12 Vminpu=0.8 Vmaxpu=1.2 model=1 kW=3.469521951913567 kvar=0.9490620687569232 Phases=1 yearly=res_kw_825_pu

New Load.load_p1ulv2945_2 conn=wye bus1=p1ulv2945.2 kV=0.12 Vminpu=0.8 Vmaxpu=1.2 model=1 kW=3.469521951913567 kvar=0.9490620687569232 Phases=1 yearly=res_kw_825_pu

New Load.load_p1ulv2946_1 conn=wye bus1=p1ulv2946.1 kV=0.12 Vminpu=0.8 Vmaxpu=1.2 model=1 kW=2.6241521841182514 kvar=0.8429304779950015 Phases=1 yearly=res_kw_33_pu

New Load.load_p1ulv2946_2 conn=wye bus1=p1ulv2946.2 kV=0.12 Vminpu=0.8 Vmaxpu=1.2 model=1 kW=2.6241521841182514 kvar=0.8429304779950015 Phases=1 yearly=res_kw_33_pu

New Load.load_p1ulv2947_1 conn=wye bus1=p1ulv2947.1 kV=0.12 Vminpu=0.8 Vmaxpu=1.2 model=1 kW=4.78815623948431 kvar=1.2110296754961107 Phases=1 yearly=res_kw_842_pu

New Load.load_p1ulv2947_2 conn=wye bus1=p1ulv2947.2 kV=0.12 Vminpu=0.8 Vmaxpu=1.2 model=1 kW=4.78815623948431 kvar=1.2110296754961107 Phases=1 yearly=res_kw_842_pu

New Load.load_p1ulv2949_1 conn=wye bus1=p1ulv2949.1 kV=0.12 Vminpu=0.8 Vmaxpu=1.2 model=1 kW=7.935406333880378 kvar=2.9734713630513365 Phases=1 yearly=res_kw_272_pu

New Load.load_p1ulv2949_2 conn=wye bus1=p1ulv2949.2 kV=0.12 Vminpu=0.8 Vmaxpu=1.2 model=1 kW=7.935406333880378 kvar=2.9734713630513365 Phases=1 yearly=res_kw_272_pu

New Load.load_p1ulv2950_1 conn=wye bus1=p1ulv2950.1 kV=0.12 Vminpu=0.8 Vmaxpu=1.2 model=1 kW=3.4468581914223817 kvar=1.1411197390818253 Phases=1 yearly=res_kw_250_pu

New Load.load_p1ulv2950_2 conn=wye bus1=p1ulv2950.2 kV=0.12 Vminpu=0.8 Vmaxpu=1.2 model=1 kW=3.4468581914223817 kvar=1.1411197390818253 Phases=1 yearly=res_kw_250_pu

New Load.load_p1ulv2951_1 conn=wye bus1=p1ulv2951.1 kV=0.12 Vminpu=0.8 Vmaxpu=1.2 model=1 kW=5.041813486525649 kvar=1.0248307475478557 Phases=1 yearly=res_kw_384_pu

New Load.load_p1ulv2951_2 conn=wye bus1=p1ulv2951.2 kV=0.12 Vminpu=0.8 Vmaxpu=1.2 model=1 kW=5.041813486525649 kvar=1.0248307475478557 Phases=1 yearly=res_kw_384_pu

New Load.load_p1ulv2952_1 conn=wye bus1=p1ulv2952.1 kV=0.12 Vminpu=0.8 Vmaxpu=1.2 model=1 kW=2.605021030189827 kvar=1.0007509371876184 Phases=1 yearly=res_kw_24_pu

New Load.load_p1ulv2952_2 conn=wye bus1=p1ulv2952.2 kV=0.12 Vminpu=0.8 Vmaxpu=1.2 model=1 kW=2.605021030189827 kvar=1.0007509371876184 Phases=1 yearly=res_kw_24_pu

New Load.load_p1ulv2953_1 conn=wye bus1=p1ulv2953.1 kV=0.12 Vminpu=0.8 Vmaxpu=1.2 model=1 kW=1.1999161251108437 kvar=0.46029278685869546 Phases=1 yearly=res_kw_829_pu

New Load.load_p1ulv2953_2 conn=wye bus1=p1ulv2953.2 kV=0.12 Vminpu=0.8 Vmaxpu=1.2 model=1 kW=1.1999161251108437 kvar=0.46029278685869546 Phases=1 yearly=res_kw_829_pu

New Load.load_p1ulv2954_1 conn=wye bus1=p1ulv2954.1 kV=0.12 Vminpu=0.8 Vmaxpu=1.2 model=1 kW=2.0903747651596376 kvar=0.7957076388263523 Phases=1 yearly=res_kw_1223_pu

New Load.load_p1ulv2954_2 conn=wye bus1=p1ulv2954.2 kV=0.12 Vminpu=0.8 Vmaxpu=1.2 model=1 kW=2.0903747651596376 kvar=0.7957076388263523 Phases=1 yearly=res_kw_1223_pu

New Load.load_p1ulv2955_1 conn=wye bus1=p1ulv2955.1 kV=0.12 Vminpu=0.8 Vmaxpu=1.2 model=1 kW=2.1376631749204993 kvar=0.6218033466021168 Phases=1 yearly=res_kw_93_pu

New Load.load_p1ulv2955_2 conn=wye bus1=p1ulv2955.2 kV=0.12 Vminpu=0.8 Vmaxpu=1.2 model=1 kW=2.1376631749204993 kvar=0.6218033466021168 Phases=1 yearly=res_kw_93_pu

New Load.load_p1ulv2956_1 conn=wye bus1=p1ulv2956.1 kV=0.12 Vminpu=0.8 Vmaxpu=1.2 model=1 kW=6.817994061838357 kvar=0.9100697715919355 Phases=1 yearly=res_kw_1099_pu

New Load.load_p1ulv2956_2 conn=wye bus1=p1ulv2956.2 kV=0.12 Vminpu=0.8 Vmaxpu=1.2 model=1 kW=6.817994061838357 kvar=0.9100697715919355 Phases=1 yearly=res_kw_1099_pu

New Load.load_p1ulv2957_1 conn=wye bus1=p1ulv2957.1 kV=0.12 Vminpu=0.8 Vmaxpu=1.2 model=1 kW=3.3701610259235064 kvar=1.065454990641787 Phases=1 yearly=res_kw_1037_pu

New Load.load_p1ulv2957_2 conn=wye bus1=p1ulv2957.2 kV=0.12 Vminpu=0.8 Vmaxpu=1.2 model=1 kW=3.3701610259235064 kvar=1.065454990641787 Phases=1 yearly=res_kw_1037_pu

New Load.load_p1ulv2958_1 conn=wye bus1=p1ulv2958.1 kV=0.12 Vminpu=0.8 Vmaxpu=1.2 model=1 kW=1.8618983584330409 kvar=0.7337589993741062 Phases=1 yearly=res_kw_141_pu

New Load.load_p1ulv2958_2 conn=wye bus1=p1ulv2958.2 kV=0.12 Vminpu=0.8 Vmaxpu=1.2 model=1 kW=1.8618983584330409 kvar=0.7337589993741062 Phases=1 yearly=res_kw_141_pu

New Load.load_p1ulv2960_1 conn=wye bus1=p1ulv2960.1 kV=0.12 Vminpu=0.8 Vmaxpu=1.2 model=1 kW=2.1376631749204993 kvar=0.6218033466021168 Phases=1 yearly=res_kw_93_pu

New Load.load_p1ulv2960_2 conn=wye bus1=p1ulv2960.2 kV=0.12 Vminpu=0.8 Vmaxpu=1.2 model=1 kW=2.1376631749204993 kvar=0.6218033466021168 Phases=1 yearly=res_kw_93_pu

New Load.load_p1ulv2961_1 conn=wye bus1=p1ulv2961.1 kV=0.12 Vminpu=0.8 Vmaxpu=1.2 model=1 kW=3.9060227283575606 kvar=0.8578020352767629 Phases=1 yearly=res_kw_278_pu

New Load.load_p1ulv2961_2 conn=wye bus1=p1ulv2961.2 kV=0.12 Vminpu=0.8 Vmaxpu=1.2 model=1 kW=3.9060227283575606 kvar=0.8578020352767629 Phases=1 yearly=res_kw_278_pu

New Load.load_p1ulv2962_1 conn=wye bus1=p1ulv2962.1 kV=0.12 Vminpu=0.8 Vmaxpu=1.2 model=1 kW=2.6241521841182514 kvar=0.8429304779950015 Phases=1 yearly=res_kw_33_pu

New Load.load_p1ulv2962_2 conn=wye bus1=p1ulv2962.2 kV=0.12 Vminpu=0.8 Vmaxpu=1.2 model=1 kW=2.6241521841182514 kvar=0.8429304779950015 Phases=1 yearly=res_kw_33_pu

New Load.load_p1ulv2963_1 conn=wye bus1=p1ulv2963.1 kV=0.12 Vminpu=0.8 Vmaxpu=1.2 model=1 kW=2.6241521841182514 kvar=0.8429304779950015 Phases=1 yearly=res_kw_33_pu
