New Loadshape.GSO_36.0721_-79.9153_35_225 npts= 35040 interval=0.25 mult = (file=../../../../../profiles/GSO_36.0721_-79.9153_35_225.csv)

New Loadshape.GSO_36.0721_-79.9153_25_180 npts= 35040 interval=0.25 mult = (file=../../../../../profiles/GSO_36.0721_-79.9153_25_180.csv)

New Loadshape.GSO_36.0721_-79.9153_45_180 npts= 35040 interval=0.25 mult = (file=../../../../../profiles/GSO_36.0721_-79.9153_45_180.csv)

New Loadshape.GSO_36.0721_-79.9153_35_90 npts= 35040 interval=0.25 mult = (file=../../../../../profiles/GSO_36.0721_-79.9153_35_90.csv)

New Loadshape.GSO_36.0721_-79.9153_15_180 npts= 35040 interval=0.25 mult = (file=../../../../../profiles/GSO_36.0721_-79.9153_15_180.csv)

New Loadshape.GSO_36.0721_-79.9153_45_225 npts= 35040 interval=0.25 mult = (file=../../../../../profiles/GSO_36.0721_-79.9153_45_225.csv)

New Loadshape.GSO_36.0721_-79.9153_15_90 npts= 35040 interval=0.25 mult = (file=../../../../../profiles/GSO_36.0721_-79.9153_15_90.csv)

New Loadshape.GSO_36.0721_-79.9153_35_180 npts= 35040 interval=0.25 mult = (file=../../../../../profiles/GSO_36.0721_-79.9153_35_180.csv)

New Loadshape.GSO_36.0721_-79.9153_15_135 npts= 35040 interval=0.25 mult = (file=../../../../../profiles/GSO_36.0721_-79.9153_15_135.csv)

New Loadshape.GSO_36.0721_-79.9153_35_270 npts= 35040 interval=0.25 mult = (file=../../../../../profiles/GSO_36.0721_-79.9153_35_270.csv)

New Loadshape.GSO_36.0721_-79.9153_25_135 npts= 35040 interval=0.25 mult = (file=../../../../../profiles/GSO_36.0721_-79.9153_25_135.csv)

New Loadshape.GSO_36.0721_-79.9153_25_90 npts= 35040 interval=0.25 mult = (file=../../../../../profiles/GSO_36.0721_-79.9153_25_90.csv)

New Loadshape.GSO_36.0721_-79.9153_25_270 npts= 35040 interval=0.25 mult = (file=../../../../../profiles/GSO_36.0721_-79.9153_25_270.csv)

New Loadshape.GSO_36.0721_-79.9153_35_135 npts= 35040 interval=0.25 mult = (file=../../../../../profiles/GSO_36.0721_-79.9153_35_135.csv)

New Loadshape.GSO_36.0721_-79.9153_45_90 npts= 35040 interval=0.25 mult = (file=../../../../../profiles/GSO_36.0721_-79.9153_45_90.csv)

New Loadshape.GSO_36.0721_-79.9153_15_270 npts= 35040 interval=0.25 mult = (file=../../../../../profiles/GSO_36.0721_-79.9153_15_270.csv)

New Loadshape.GSO_36.0721_-79.9153_15_225 npts= 35040 interval=0.25 mult = (file=../../../../../profiles/GSO_36.0721_-79.9153_15_225.csv)

New Loadshape.GSO_36.0721_-79.9153_25_225 npts= 35040 interval=0.25 mult = (file=../../../../../profiles/GSO_36.0721_-79.9153_25_225.csv)

New Loadshape.GSO_36.0721_-79.9153_45_270 npts= 35040 interval=0.25 mult = (file=../../../../../profiles/GSO_36.0721_-79.9153_45_270.csv)

New Loadshape.GSO_36.0721_-79.9153_45_135 npts= 35040 interval=0.25 mult = (file=../../../../../profiles/GSO_36.0721_-79.9153_45_135.csv)

New Loadshape.res_kw_532_pu npts= 35040 interval=0.25 mult = (file=../../../../../profiles/res_kw_532_pu.csv) qmult = (file=../../../../../profiles/res_kvar_532_pu.csv)

New Loadshape.res_kw_531_pu npts= 35040 interval=0.25 mult = (file=../../../../../profiles/res_kw_531_pu.csv) qmult = (file=../../../../../profiles/res_kvar_531_pu.csv)

New Loadshape.res_kw_470_pu npts= 35040 interval=0.25 mult = (file=../../../../../profiles/res_kw_470_pu.csv) qmult = (file=../../../../../profiles/res_kvar_470_pu.csv)

New Loadshape.res_kw_670_pu npts= 35040 interval=0.25 mult = (file=../../../../../profiles/res_kw_670_pu.csv) qmult = (file=../../../../../profiles/res_kvar_670_pu.csv)

New Loadshape.res_kw_597_pu npts= 35040 interval=0.25 mult = (file=../../../../../profiles/res_kw_597_pu.csv) qmult = (file=../../../../../profiles/res_kvar_597_pu.csv)

New Loadshape.res_kw_968_pu npts= 35040 interval=0.25 mult = (file=../../../../../profiles/res_kw_968_pu.csv) qmult = (file=../../../../../profiles/res_kvar_968_pu.csv)

New Loadshape.res_kw_825_pu npts= 35040 interval=0.25 mult = (file=../../../../../profiles/res_kw_825_pu.csv) qmult = (file=../../../../../profiles/res_kvar_825_pu.csv)

New Loadshape.res_kw_691_pu npts= 35040 interval=0.25 mult = (file=../../../../../profiles/res_kw_691_pu.csv) qmult = (file=../../../../../profiles/res_kvar_691_pu.csv)

New Loadshape.res_kw_842_pu npts= 35040 interval=0.25 mult = (file=../../../../../profiles/res_kw_842_pu.csv) qmult = (file=../../../../../profiles/res_kvar_842_pu.csv)

New Loadshape.res_kw_40_pu npts= 35040 interval=0.25 mult = (file=../../../../../profiles/res_kw_40_pu.csv) qmult = (file=../../../../../profiles/res_kvar_40_pu.csv)

New Loadshape.res_kw_1037_pu npts= 35040 interval=0.25 mult = (file=../../../../../profiles/res_kw_1037_pu.csv) qmult = (file=../../../../../profiles/res_kvar_1037_pu.csv)

New Loadshape.res_kw_250_pu npts= 35040 interval=0.25 mult = (file=../../../../../profiles/res_kw_250_pu.csv) qmult = (file=../../../../../profiles/res_kvar_250_pu.csv)

New Loadshape.res_kw_505_pu npts= 35040 interval=0.25 mult = (file=../../../../../profiles/res_kw_505_pu.csv) qmult = (file=../../../../../profiles/res_kvar_505_pu.csv)

New Loadshape.res_kw_319_pu npts= 35040 interval=0.25 mult = (file=../../../../../profiles/res_kw_319_pu.csv) qmult = (file=../../../../../profiles/res_kvar_319_pu.csv)

New Loadshape.res_kw_630_pu npts= 35040 interval=0.25 mult = (file=../../../../../profiles/res_kw_630_pu.csv) qmult = (file=../../../../../profiles/res_kvar_630_pu.csv)

New Loadshape.res_kw_517_pu npts= 35040 interval=0.25 mult = (file=../../../../../profiles/res_kw_517_pu.csv) qmult = (file=../../../../../profiles/res_kvar_517_pu.csv)

New Loadshape.res_kw_271_pu npts= 35040 interval=0.25 mult = (file=../../../../../profiles/res_kw_271_pu.csv) qmult = (file=../../../../../profiles/res_kvar_271_pu.csv)

New Loadshape.res_kw_272_pu npts= 35040 interval=0.25 mult = (file=../../../../../profiles/res_kw_272_pu.csv) qmult = (file=../../../../../profiles/res_kvar_272_pu.csv)

New Loadshape.res_kw_1186_pu npts= 35040 interval=0.25 mult = (file=../../../../../profiles/res_kw_1186_pu.csv) qmult = (file=../../../../../profiles/res_kvar_1186_pu.csv)

New Loadshape.res_kw_380_pu npts= 35040 interval=0.25 mult = (file=../../../../../profiles/res_kw_380_pu.csv) qmult = (file=../../../../../profiles/res_kvar_380_pu.csv)

New Loadshape.res_kw_33_pu npts= 35040 interval=0.25 mult = (file=../../../../../profiles/res_kw_33_pu.csv) qmult = (file=../../../../../profiles/res_kvar_33_pu.csv)

New Loadshape.res_kw_1267_pu npts= 35040 interval=0.25 mult = (file=../../../../../profiles/res_kw_1267_pu.csv) qmult = (file=../../../../../profiles/res_kvar_1267_pu.csv)

New Loadshape.res_kw_1113_pu npts= 35040 interval=0.25 mult = (file=../../../../../profiles/res_kw_1113_pu.csv) qmult = (file=../../../../../profiles/res_kvar_1113_pu.csv)

New Loadshape.res_kw_1160_pu npts= 35040 interval=0.25 mult = (file=../../../../../profiles/res_kw_1160_pu.csv) qmult = (file=../../../../../profiles/res_kvar_1160_pu.csv)

New Loadshape.res_kw_362_pu npts= 35040 interval=0.25 mult = (file=../../../../../profiles/res_kw_362_pu.csv) qmult = (file=../../../../../profiles/res_kvar_362_pu.csv)

New Loadshape.res_kw_1205_pu npts= 35040 interval=0.25 mult = (file=../../../../../profiles/res_kw_1205_pu.csv) qmult = (file=../../../../../profiles/res_kvar_1205_pu.csv)

New Loadshape.res_kw_512_pu npts= 35040 interval=0.25 mult = (file=../../../../../profiles/res_kw_512_pu.csv) qmult = (file=../../../../../profiles/res_kvar_512_pu.csv)

New Loadshape.res_kw_263_pu npts= 35040 interval=0.25 mult = (file=../../../../../profiles/res_kw_263_pu.csv) qmult = (file=../../../../../profiles/res_kvar_263_pu.csv)

New Loadshape.res_kw_504_pu npts= 35040 interval=0.25 mult = (file=../../../../../profiles/res_kw_504_pu.csv) qmult = (file=../../../../../profiles/res_kvar_504_pu.csv)

New Loadshape.res_kw_598_pu npts= 35040 interval=0.25 mult = (file=../../../../../profiles/res_kw_598_pu.csv) qmult = (file=../../../../../profiles/res_kvar_598_pu.csv)

New Loadshape.res_kw_408_pu npts= 35040 interval=0.25 mult = (file=../../../../../profiles/res_kw_408_pu.csv) qmult = (file=../../../../../profiles/res_kvar_408_pu.csv)

New Loadshape.res_kw_1042_pu npts= 35040 interval=0.25 mult = (file=../../../../../profiles/res_kw_1042_pu.csv) qmult = (file=../../../../../profiles/res_kvar_1042_pu.csv)

New Loadshape.res_kw_24_pu npts= 35040 interval=0.25 mult = (file=../../../../../profiles/res_kw_24_pu.csv) qmult = (file=../../../../../profiles/res_kvar_24_pu.csv)

New Loadshape.res_kw_1220_pu npts= 35040 interval=0.25 mult = (file=../../../../../profiles/res_kw_1220_pu.csv) qmult = (file=../../../../../profiles/res_kvar_1220_pu.csv)

New Loadshape.res_kw_1157_pu npts= 35040 interval=0.25 mult = (file=../../../../../profiles/res_kw_1157_pu.csv) qmult = (file=../../../../../profiles/res_kvar_1157_pu.csv)

New Loadshape.res_kw_1273_pu npts= 35040 interval=0.25 mult = (file=../../../../../profiles/res_kw_1273_pu.csv) qmult = (file=../../../../../profiles/res_kvar_1273_pu.csv)

New Loadshape.res_kw_199_pu npts= 35040 interval=0.25 mult = (file=../../../../../profiles/res_kw_199_pu.csv) qmult = (file=../../../../../profiles/res_kvar_199_pu.csv)

New Loadshape.res_kw_1224_pu npts= 35040 interval=0.25 mult = (file=../../../../../profiles/res_kw_1224_pu.csv) qmult = (file=../../../../../profiles/res_kvar_1224_pu.csv)

New Loadshape.res_kw_123_pu npts= 35040 interval=0.25 mult = (file=../../../../../profiles/res_kw_123_pu.csv) qmult = (file=../../../../../profiles/res_kvar_123_pu.csv)

New Loadshape.res_kw_772_pu npts= 35040 interval=0.25 mult = (file=../../../../../profiles/res_kw_772_pu.csv) qmult = (file=../../../../../profiles/res_kvar_772_pu.csv)

New Loadshape.res_kw_461_pu npts= 35040 interval=0.25 mult = (file=../../../../../profiles/res_kw_461_pu.csv) qmult = (file=../../../../../profiles/res_kvar_461_pu.csv)

New Loadshape.res_kw_645_pu npts= 35040 interval=0.25 mult = (file=../../../../../profiles/res_kw_645_pu.csv) qmult = (file=../../../../../profiles/res_kvar_645_pu.csv)

New Loadshape.res_kw_409_pu npts= 35040 interval=0.25 mult = (file=../../../../../profiles/res_kw_409_pu.csv) qmult = (file=../../../../../profiles/res_kvar_409_pu.csv)

New Loadshape.res_kw_267_pu npts= 35040 interval=0.25 mult = (file=../../../../../profiles/res_kw_267_pu.csv) qmult = (file=../../../../../profiles/res_kvar_267_pu.csv)

New Loadshape.res_kw_853_pu npts= 35040 interval=0.25 mult = (file=../../../../../profiles/res_kw_853_pu.csv) qmult = (file=../../../../../profiles/res_kvar_853_pu.csv)

New Loadshape.res_kw_523_pu npts= 35040 interval=0.25 mult = (file=../../../../../profiles/res_kw_523_pu.csv) qmult = (file=../../../../../profiles/res_kvar_523_pu.csv)

New Loadshape.res_kw_452_pu npts= 35040 interval=0.25 mult = (file=../../../../../profiles/res_kw_452_pu.csv) qmult = (file=../../../../../profiles/res_kvar_452_pu.csv)

New Loadshape.res_kw_162_pu npts= 35040 interval=0.25 mult = (file=../../../../../profiles/res_kw_162_pu.csv) qmult = (file=../../../../../profiles/res_kvar_162_pu.csv)

New Loadshape.res_kw_754_pu npts= 35040 interval=0.25 mult = (file=../../../../../profiles/res_kw_754_pu.csv) qmult = (file=../../../../../profiles/res_kvar_754_pu.csv)

New Loadshape.res_kw_384_pu npts= 35040 interval=0.25 mult = (file=../../../../../profiles/res_kw_384_pu.csv) qmult = (file=../../../../../profiles/res_kvar_384_pu.csv)

New Loadshape.res_kw_829_pu npts= 35040 interval=0.25 mult = (file=../../../../../profiles/res_kw_829_pu.csv) qmult = (file=../../../../../profiles/res_kvar_829_pu.csv)

New Loadshape.res_kw_1223_pu npts= 35040 interval=0.25 mult = (file=../../../../../profiles/res_kw_1223_pu.csv) qmult = (file=../../../../../profiles/res_kvar_1223_pu.csv)

New Loadshape.res_kw_93_pu npts= 35040 interval=0.25 mult = (file=../../../../../profiles/res_kw_93_pu.csv) qmult = (file=../../../../../profiles/res_kvar_93_pu.csv)

New Loadshape.res_kw_1099_pu npts= 35040 interval=0.25 mult = (file=../../../../../profiles/res_kw_1099_pu.csv) qmult = (file=../../../../../profiles/res_kvar_1099_pu.csv)

New Loadshape.res_kw_141_pu npts= 35040 interval=0.25 mult = (file=../../../../../profiles/res_kw_141_pu.csv) qmult = (file=../../../../../profiles/res_kvar_141_pu.csv)

New Loadshape.res_kw_278_pu npts= 35040 interval=0.25 mult = (file=../../../../../profiles/res_kw_278_pu.csv) qmult = (file=../../../../../profiles/res_kvar_278_pu.csv)

New Loadshape.res_kw_280_pu npts= 35040 interval=0.25 mult = (file=../../../../../profiles/res_kw_280_pu.csv) qmult = (file=../../../../../profiles/res_kvar_280_pu.csv)

New Loadshape.res_kw_931_pu npts= 35040 interval=0.25 mult = (file=../../../../../profiles/res_kw_931_pu.csv) qmult = (file=../../../../../profiles/res_kvar_931_pu.csv)

New Loadshape.res_kw_231_pu npts= 35040 interval=0.25 mult = (file=../../../../../profiles/res_kw_231_pu.csv) qmult = (file=../../../../../profiles/res_kvar_231_pu.csv)

New Loadshape.res_kw_245_pu npts= 35040 interval=0.25 mult = (file=../../../../../profiles/res_kw_245_pu.csv) qmult = (file=../../../../../profiles/res_kvar_245_pu.csv)

New Loadshape.res_kw_1258_pu npts= 35040 interval=0.25 mult = (file=../../../../../profiles/res_kw_1258_pu.csv) qmult = (file=../../../../../profiles/res_kvar_1258_pu.csv)

New Loadshape.res_kw_314_pu npts= 35040 interval=0.25 mult = (file=../../../../../profiles/res_kw_314_pu.csv) qmult = (file=../../../../../profiles/res_kvar_314_pu.csv)

New Loadshape.res_kw_910_pu npts= 35040 interval=0.25 mult = (file=../../../../../profiles/res_kw_910_pu.csv) qmult = (file=../../../../../profiles/res_kvar_910_pu.csv)

New Loadshape.res_kw_39_pu npts= 35040 interval=0.25 mult = (file=../../../../../profiles/res_kw_39_pu.csv) qmult = (file=../../../../../profiles/res_kvar_39_pu.csv)

New Loadshape.res_kw_536_pu npts= 35040 interval=0.25 mult = (file=../../../../../profiles/res_kw_536_pu.csv) qmult = (file=../../../../../profiles/res_kvar_536_pu.csv)

New Loadshape.res_kw_1276_pu npts= 35040 interval=0.25 mult = (file=../../../../../profiles/res_kw_1276_pu.csv) qmult = (file=../../../../../profiles/res_kvar_1276_pu.csv)

New Loadshape.res_kw_1149_pu npts= 35040 interval=0.25 mult = (file=../../../../../profiles/res_kw_1149_pu.csv) qmult = (file=../../../../../profiles/res_kvar_1149_pu.csv)

New Loadshape.res_kw_887_pu npts= 35040 interval=0.25 mult = (file=../../../../../profiles/res_kw_887_pu.csv) qmult = (file=../../../../../profiles/res_kvar_887_pu.csv)

New Loadshape.res_kw_205_pu npts= 35040 interval=0.25 mult = (file=../../../../../profiles/res_kw_205_pu.csv) qmult = (file=../../../../../profiles/res_kvar_205_pu.csv)

New Loadshape.res_kw_331_pu npts= 35040 interval=0.25 mult = (file=../../../../../profiles/res_kw_331_pu.csv) qmult = (file=../../../../../profiles/res_kvar_331_pu.csv)

New Loadshape.res_kw_20_pu npts= 35040 interval=0.25 mult = (file=../../../../../profiles/res_kw_20_pu.csv) qmult = (file=../../../../../profiles/res_kvar_20_pu.csv)

New Loadshape.res_kw_182_pu npts= 35040 interval=0.25 mult = (file=../../../../../profiles/res_kw_182_pu.csv) qmult = (file=../../../../../profiles/res_kvar_182_pu.csv)

New Loadshape.res_kw_462_pu npts= 35040 interval=0.25 mult = (file=../../../../../profiles/res_kw_462_pu.csv) qmult = (file=../../../../../profiles/res_kvar_462_pu.csv)

New Loadshape.res_kw_396_pu npts= 35040 interval=0.25 mult = (file=../../../../../profiles/res_kw_396_pu.csv) qmult = (file=../../../../../profiles/res_kvar_396_pu.csv)

New Loadshape.res_kw_1177_pu npts= 35040 interval=0.25 mult = (file=../../../../../profiles/res_kw_1177_pu.csv) qmult = (file=../../../../../profiles/res_kvar_1177_pu.csv)

New Loadshape.res_kw_211_pu npts= 35040 interval=0.25 mult = (file=../../../../../profiles/res_kw_211_pu.csv) qmult = (file=../../../../../profiles/res_kvar_211_pu.csv)

New Loadshape.res_kw_76_pu npts= 35040 interval=0.25 mult = (file=../../../../../profiles/res_kw_76_pu.csv) qmult = (file=../../../../../profiles/res_kvar_76_pu.csv)

New Loadshape.res_kw_453_pu npts= 35040 interval=0.25 mult = (file=../../../../../profiles/res_kw_453_pu.csv) qmult = (file=../../../../../profiles/res_kvar_453_pu.csv)

New Loadshape.res_kw_780_pu npts= 35040 interval=0.25 mult = (file=../../../../../profiles/res_kw_780_pu.csv) qmult = (file=../../../../../profiles/res_kvar_780_pu.csv)

New Loadshape.res_kw_652_pu npts= 35040 interval=0.25 mult = (file=../../../../../profiles/res_kw_652_pu.csv) qmult = (file=../../../../../profiles/res_kvar_652_pu.csv)

New Loadshape.res_kw_823_pu npts= 35040 interval=0.25 mult = (file=../../../../../profiles/res_kw_823_pu.csv) qmult = (file=../../../../../profiles/res_kvar_823_pu.csv)

New Loadshape.res_kw_599_pu npts= 35040 interval=0.25 mult = (file=../../../../../profiles/res_kw_599_pu.csv) qmult = (file=../../../../../profiles/res_kvar_599_pu.csv)

New Loadshape.res_kw_407_pu npts= 35040 interval=0.25 mult = (file=../../../../../profiles/res_kw_407_pu.csv) qmult = (file=../../../../../profiles/res_kvar_407_pu.csv)

New Loadshape.res_kw_1105_pu npts= 35040 interval=0.25 mult = (file=../../../../../profiles/res_kw_1105_pu.csv) qmult = (file=../../../../../profiles/res_kvar_1105_pu.csv)

New Loadshape.res_kw_664_pu npts= 35040 interval=0.25 mult = (file=../../../../../profiles/res_kw_664_pu.csv) qmult = (file=../../../../../profiles/res_kvar_664_pu.csv)

New Loadshape.res_kw_317_pu npts= 35040 interval=0.25 mult = (file=../../../../../profiles/res_kw_317_pu.csv) qmult = (file=../../../../../profiles/res_kvar_317_pu.csv)

New Loadshape.res_kw_4_pu npts= 35040 interval=0.25 mult = (file=../../../../../profiles/res_kw_4_pu.csv) qmult = (file=../../../../../profiles/res_kvar_4_pu.csv)

New Loadshape.res_kw_98_pu npts= 35040 interval=0.25 mult = (file=../../../../../profiles/res_kw_98_pu.csv) qmult = (file=../../../../../profiles/res_kvar_98_pu.csv)

New Loadshape.res_kw_1209_pu npts= 35040 interval=0.25 mult = (file=../../../../../profiles/res_kw_1209_pu.csv) qmult = (file=../../../../../profiles/res_kvar_1209_pu.csv)

New Loadshape.res_kw_325_pu npts= 35040 interval=0.25 mult = (file=../../../../../profiles/res_kw_325_pu.csv) qmult = (file=../../../../../profiles/res_kvar_325_pu.csv)

New Loadshape.res_kw_97_pu npts= 35040 interval=0.25 mult = (file=../../../../../profiles/res_kw_97_pu.csv) qmult = (file=../../../../../profiles/res_kvar_97_pu.csv)

New Loadshape.res_kw_621_pu npts= 35040 interval=0.25 mult = (file=../../../../../profiles/res_kw_621_pu.csv) qmult = (file=../../../../../profiles/res_kvar_621_pu.csv)

New Loadshape.res_kw_1102_pu npts= 35040 interval=0.25 mult = (file=../../../../../profiles/res_kw_1102_pu.csv) qmult = (file=../../../../../profiles/res_kvar_1102_pu.csv)

New Loadshape.res_kw_222_pu npts= 35040 interval=0.25 mult = (file=../../../../../profiles/res_kw_222_pu.csv) qmult = (file=../../../../../profiles/res_kvar_222_pu.csv)

New Loadshape.res_kw_1084_pu npts= 35040 interval=0.25 mult = (file=../../../../../profiles/res_kw_1084_pu.csv) qmult = (file=../../../../../profiles/res_kvar_1084_pu.csv)

New Loadshape.res_kw_644_pu npts= 35040 interval=0.25 mult = (file=../../../../../profiles/res_kw_644_pu.csv) qmult = (file=../../../../../profiles/res_kvar_644_pu.csv)

New Loadshape.res_kw_229_pu npts= 35040 interval=0.25 mult = (file=../../../../../profiles/res_kw_229_pu.csv) qmult = (file=../../../../../profiles/res_kvar_229_pu.csv)

New Loadshape.res_kw_748_pu npts= 35040 interval=0.25 mult = (file=../../../../../profiles/res_kw_748_pu.csv) qmult = (file=../../../../../profiles/res_kvar_748_pu.csv)

New Loadshape.res_kw_1256_pu npts= 35040 interval=0.25 mult = (file=../../../../../profiles/res_kw_1256_pu.csv) qmult = (file=../../../../../profiles/res_kvar_1256_pu.csv)

New Loadshape.res_kw_692_pu npts= 35040 interval=0.25 mult = (file=../../../../../profiles/res_kw_692_pu.csv) qmult = (file=../../../../../profiles/res_kvar_692_pu.csv)

New Loadshape.res_kw_695_pu npts= 35040 interval=0.25 mult = (file=../../../../../profiles/res_kw_695_pu.csv) qmult = (file=../../../../../profiles/res_kvar_695_pu.csv)

New Loadshape.res_kw_736_pu npts= 35040 interval=0.25 mult = (file=../../../../../profiles/res_kw_736_pu.csv) qmult = (file=../../../../../profiles/res_kvar_736_pu.csv)

New Loadshape.res_kw_419_pu npts= 35040 interval=0.25 mult = (file=../../../../../profiles/res_kw_419_pu.csv) qmult = (file=../../../../../profiles/res_kvar_419_pu.csv)

New Loadshape.res_kw_1270_pu npts= 35040 interval=0.25 mult = (file=../../../../../profiles/res_kw_1270_pu.csv) qmult = (file=../../../../../profiles/res_kvar_1270_pu.csv)

New Loadshape.res_kw_30_pu npts= 35040 interval=0.25 mult = (file=../../../../../profiles/res_kw_30_pu.csv) qmult = (file=../../../../../profiles/res_kvar_30_pu.csv)

New Loadshape.res_kw_697_pu npts= 35040 interval=0.25 mult = (file=../../../../../profiles/res_kw_697_pu.csv) qmult = (file=../../../../../profiles/res_kvar_697_pu.csv)

New Loadshape.res_kw_558_pu npts= 35040 interval=0.25 mult = (file=../../../../../profiles/res_kw_558_pu.csv) qmult = (file=../../../../../profiles/res_kvar_558_pu.csv)

New Loadshape.com_kw_13363_pu npts= 35040 interval=0.25 mult = (file=../../../../../profiles/com_kw_13363_pu.csv) qmult = (file=../../../../../profiles/com_kvar_13363_pu.csv)

New Loadshape.com_kw_14976_pu npts= 35040 interval=0.25 mult = (file=../../../../../profiles/com_kw_14976_pu.csv) qmult = (file=../../../../../profiles/com_kvar_14976_pu.csv)

New Loadshape.com_kw_14650_pu npts= 35040 interval=0.25 mult = (file=../../../../../profiles/com_kw_14650_pu.csv) qmult = (file=../../../../../profiles/com_kvar_14650_pu.csv)

New Loadshape.com_kw_13219_pu npts= 35040 interval=0.25 mult = (file=../../../../../profiles/com_kw_13219_pu.csv) qmult = (file=../../../../../profiles/com_kvar_13219_pu.csv)

New Loadshape.com_kw_13891_pu npts= 35040 interval=0.25 mult = (file=../../../../../profiles/com_kw_13891_pu.csv) qmult = (file=../../../../../profiles/com_kvar_13891_pu.csv)

New Loadshape.com_kw_13262_pu npts= 35040 interval=0.25 mult = (file=../../../../../profiles/com_kw_13262_pu.csv) qmult = (file=../../../../../profiles/com_kvar_13262_pu.csv)

New Loadshape.com_kw_13096_pu npts= 35040 interval=0.25 mult = (file=../../../../../profiles/com_kw_13096_pu.csv) qmult = (file=../../../../../profiles/com_kvar_13096_pu.csv)

New Loadshape.com_kw_14822_pu npts= 35040 interval=0.25 mult = (file=../../../../../profiles/com_kw_14822_pu.csv) qmult = (file=../../../../../profiles/com_kvar_14822_pu.csv)

New Loadshape.com_kw_14787_pu npts= 35040 interval=0.25 mult = (file=../../../../../profiles/com_kw_14787_pu.csv) qmult = (file=../../../../../profiles/com_kvar_14787_pu.csv)

New Loadshape.com_kw_12814_pu npts= 35040 interval=0.25 mult = (file=../../../../../profiles/com_kw_12814_pu.csv) qmult = (file=../../../../../profiles/com_kvar_12814_pu.csv)

New Loadshape.com_kw_15017_pu npts= 35040 interval=0.25 mult = (file=../../../../../profiles/com_kw_15017_pu.csv) qmult = (file=../../../../../profiles/com_kvar_15017_pu.csv)

New Loadshape.com_kw_12942_pu npts= 35040 interval=0.25 mult = (file=../../../../../profiles/com_kw_12942_pu.csv) qmult = (file=../../../../../profiles/com_kvar_12942_pu.csv)

New Loadshape.com_kw_12909_pu npts= 35040 interval=0.25 mult = (file=../../../../../profiles/com_kw_12909_pu.csv) qmult = (file=../../../../../profiles/com_kvar_12909_pu.csv)

New Loadshape.com_kw_14946_pu npts= 35040 interval=0.25 mult = (file=../../../../../profiles/com_kw_14946_pu.csv) qmult = (file=../../../../../profiles/com_kvar_14946_pu.csv)

New Loadshape.com_kw_14388_pu npts= 35040 interval=0.25 mult = (file=../../../../../profiles/com_kw_14388_pu.csv) qmult = (file=../../../../../profiles/com_kvar_14388_pu.csv)

New Loadshape.com_kw_13623_pu npts= 35040 interval=0.25 mult = (file=../../../../../profiles/com_kw_13623_pu.csv) qmult = (file=../../../../../profiles/com_kvar_13623_pu.csv)

New Loadshape.com_kw_13831_pu npts= 35040 interval=0.25 mult = (file=../../../../../profiles/com_kw_13831_pu.csv) qmult = (file=../../../../../profiles/com_kvar_13831_pu.csv)

New Loadshape.com_kw_13800_pu npts= 35040 interval=0.25 mult = (file=../../../../../profiles/com_kw_13800_pu.csv) qmult = (file=../../../../../profiles/com_kvar_13800_pu.csv)

New Loadshape.com_kw_13893_pu npts= 35040 interval=0.25 mult = (file=../../../../../profiles/com_kw_13893_pu.csv) qmult = (file=../../../../../profiles/com_kvar_13893_pu.csv)

New Loadshape.com_kw_14427_pu npts= 35040 interval=0.25 mult = (file=../../../../../profiles/com_kw_14427_pu.csv) qmult = (file=../../../../../profiles/com_kvar_14427_pu.csv)

New Loadshape.com_kw_13860_pu npts= 35040 interval=0.25 mult = (file=../../../../../profiles/com_kw_13860_pu.csv) qmult = (file=../../../../../profiles/com_kvar_13860_pu.csv)

New Loadshape.com_kw_13056_pu npts= 35040 interval=0.25 mult = (file=../../../../../profiles/com_kw_13056_pu.csv) qmult = (file=../../../../../profiles/com_kvar_13056_pu.csv)

New Loadshape.com_kw_12998_pu npts= 35040 interval=0.25 mult = (file=../../../../../profiles/com_kw_12998_pu.csv) qmult = (file=../../../../../profiles/com_kvar_12998_pu.csv)

New Loadshape.com_kw_14136_pu npts= 35040 interval=0.25 mult = (file=../../../../../profiles/com_kw_14136_pu.csv) qmult = (file=../../../../../profiles/com_kvar_14136_pu.csv)

New Loadshape.com_kw_14610_pu npts= 35040 interval=0.25 mult = (file=../../../../../profiles/com_kw_14610_pu.csv) qmult = (file=../../../../../profiles/com_kvar_14610_pu.csv)

New Loadshape.com_kw_14300_pu npts= 35040 interval=0.25 mult = (file=../../../../../profiles/com_kw_14300_pu.csv) qmult = (file=../../../../../profiles/com_kvar_14300_pu.csv)

New Loadshape.com_kw_14480_pu npts= 35040 interval=0.25 mult = (file=../../../../../profiles/com_kw_14480_pu.csv) qmult = (file=../../../../../profiles/com_kvar_14480_pu.csv)

New Loadshape.com_kw_14382_pu npts= 35040 interval=0.25 mult = (file=../../../../../profiles/com_kw_14382_pu.csv) qmult = (file=../../../../../profiles/com_kvar_14382_pu.csv)

New Loadshape.com_kw_12995_pu npts= 35040 interval=0.25 mult = (file=../../../../../profiles/com_kw_12995_pu.csv) qmult = (file=../../../../../profiles/com_kvar_12995_pu.csv)

New Loadshape.com_kw_12824_pu npts= 35040 interval=0.25 mult = (file=../../../../../profiles/com_kw_12824_pu.csv) qmult = (file=../../../../../profiles/com_kvar_12824_pu.csv)

New Loadshape.com_kw_13372_pu npts= 35040 interval=0.25 mult = (file=../../../../../profiles/com_kw_13372_pu.csv) qmult = (file=../../../../../profiles/com_kvar_13372_pu.csv)

New Loadshape.com_kw_14434_pu npts= 35040 interval=0.25 mult = (file=../../../../../profiles/com_kw_14434_pu.csv) qmult = (file=../../../../../profiles/com_kvar_14434_pu.csv)

New Loadshape.com_kw_15068_pu npts= 35040 interval=0.25 mult = (file=../../../../../profiles/com_kw_15068_pu.csv) qmult = (file=../../../../../profiles/com_kvar_15068_pu.csv)

New Loadshape.com_kw_13657_pu npts= 35040 interval=0.25 mult = (file=../../../../../profiles/com_kw_13657_pu.csv) qmult = (file=../../../../../profiles/com_kvar_13657_pu.csv)

New Loadshape.com_kw_13932_pu npts= 35040 interval=0.25 mult = (file=../../../../../profiles/com_kw_13932_pu.csv) qmult = (file=../../../../../profiles/com_kvar_13932_pu.csv)

New Loadshape.com_kw_13164_pu npts= 35040 interval=0.25 mult = (file=../../../../../profiles/com_kw_13164_pu.csv) qmult = (file=../../../../../profiles/com_kvar_13164_pu.csv)

New Loadshape.com_kw_12926_pu npts= 35040 interval=0.25 mult = (file=../../../../../profiles/com_kw_12926_pu.csv) qmult = (file=../../../../../profiles/com_kvar_12926_pu.csv)

New Loadshape.com_kw_13234_pu npts= 35040 interval=0.25 mult = (file=../../../../../profiles/com_kw_13234_pu.csv) qmult = (file=../../../../../profiles/com_kvar_13234_pu.csv)

New Loadshape.com_kw_14673_pu npts= 35040 interval=0.25 mult = (file=../../../../../profiles/com_kw_14673_pu.csv) qmult = (file=../../../../../profiles/com_kvar_14673_pu.csv)

New Loadshape.com_kw_13567_pu npts= 35040 interval=0.25 mult = (file=../../../../../profiles/com_kw_13567_pu.csv) qmult = (file=../../../../../profiles/com_kvar_13567_pu.csv)

New Loadshape.com_kw_15253_pu npts= 35040 interval=0.25 mult = (file=../../../../../profiles/com_kw_15253_pu.csv) qmult = (file=../../../../../profiles/com_kvar_15253_pu.csv)

New Loadshape.com_kw_14206_pu npts= 35040 interval=0.25 mult = (file=../../../../../profiles/com_kw_14206_pu.csv) qmult = (file=../../../../../profiles/com_kvar_14206_pu.csv)

New Loadshape.com_kw_14231_pu npts= 35040 interval=0.25 mult = (file=../../../../../profiles/com_kw_14231_pu.csv) qmult = (file=../../../../../profiles/com_kvar_14231_pu.csv)

New Loadshape.com_kw_15212_pu npts= 35040 interval=0.25 mult = (file=../../../../../profiles/com_kw_15212_pu.csv) qmult = (file=../../../../../profiles/com_kvar_15212_pu.csv)

New Loadshape.com_kw_14989_pu npts= 35040 interval=0.25 mult = (file=../../../../../profiles/com_kw_14989_pu.csv) qmult = (file=../../../../../profiles/com_kvar_14989_pu.csv)

New Loadshape.com_kw_13527_pu npts= 35040 interval=0.25 mult = (file=../../../../../profiles/com_kw_13527_pu.csv) qmult = (file=../../../../../profiles/com_kvar_13527_pu.csv)

New Loadshape.com_kw_14176_pu npts= 35040 interval=0.25 mult = (file=../../../../../profiles/com_kw_14176_pu.csv) qmult = (file=../../../../../profiles/com_kvar_14176_pu.csv)

New Loadshape.com_kw_13303_pu npts= 35040 interval=0.25 mult = (file=../../../../../profiles/com_kw_13303_pu.csv) qmult = (file=../../../../../profiles/com_kvar_13303_pu.csv)

New Loadshape.com_kw_14455_pu npts= 35040 interval=0.25 mult = (file=../../../../../profiles/com_kw_14455_pu.csv) qmult = (file=../../../../../profiles/com_kvar_14455_pu.csv)

New Loadshape.com_kw_15111_pu npts= 35040 interval=0.25 mult = (file=../../../../../profiles/com_kw_15111_pu.csv) qmult = (file=../../../../../profiles/com_kvar_15111_pu.csv)

New Loadshape.com_kw_15215_pu npts= 35040 interval=0.25 mult = (file=../../../../../profiles/com_kw_15215_pu.csv) qmult = (file=../../../../../profiles/com_kvar_15215_pu.csv)
