New Load.load_p1ulv60_1 conn=wye bus1=p1ulv60.1 kV=0.12 Vminpu=0.8 Vmaxpu=1.2 model=1 kW=22.490493344802942 kvar=6.21075543593501 Phases=1 yearly=com_kw_13585_pu

New Load.load_p1ulv60_2 conn=wye bus1=p1ulv60.2 kV=0.12 Vminpu=0.8 Vmaxpu=1.2 model=1 kW=22.490493344802942 kvar=6.21075543593501 Phases=1 yearly=com_kw_13585_pu

New Load.load_p1ulv65_1 conn=wye bus1=p1ulv65.1 kV=0.12 Vminpu=0.8 Vmaxpu=1.2 model=1 kW=22.490493344802942 kvar=6.21075543593501 Phases=1 yearly=com_kw_13585_pu

New Load.load_p1ulv65_2 conn=wye bus1=p1ulv65.2 kV=0.12 Vminpu=0.8 Vmaxpu=1.2 model=1 kW=22.490493344802942 kvar=6.21075543593501 Phases=1 yearly=com_kw_13585_pu

New Load.load_p1ulv68_1 conn=wye bus1=p1ulv68.1 kV=0.12 Vminpu=0.8 Vmaxpu=1.2 model=1 kW=5.1496269559453545 kvar=1.5323145223091108 Phases=1 yearly=com_kw_14231_pu

New Load.load_p1ulv68_2 conn=wye bus1=p1ulv68.2 kV=0.12 Vminpu=0.8 Vmaxpu=1.2 model=1 kW=5.1496269559453545 kvar=1.5323145223091108 Phases=1 yearly=com_kw_14231_pu

New Load.load_p1ulv69_1 conn=wye bus1=p1ulv69.1 kV=0.12 Vminpu=0.8 Vmaxpu=1.2 model=1 kW=7.250594005401872 kvar=2.159599024914511 Phases=1 yearly=com_kw_13212_pu

New Load.load_p1ulv69_2 conn=wye bus1=p1ulv69.2 kV=0.12 Vminpu=0.8 Vmaxpu=1.2 model=1 kW=7.250594005401872 kvar=2.159599024914511 Phases=1 yearly=com_kw_13212_pu

New Load.load_p1ulv71_1 conn=wye bus1=p1ulv71.1 kV=0.12 Vminpu=0.8 Vmaxpu=1.2 model=1 kW=1.1999161251108437 kvar=0.46029278685869546 Phases=1 yearly=res_kw_829_pu

New Load.load_p1ulv71_2 conn=wye bus1=p1ulv71.2 kV=0.12 Vminpu=0.8 Vmaxpu=1.2 model=1 kW=1.1999161251108437 kvar=0.46029278685869546 Phases=1 yearly=res_kw_829_pu

New Load.load_p1ulv72 conn=wye bus1=p1ulv72.1.2.3 kV=0.48 Vminpu=0.8 Vmaxpu=1.2 model=1 kW=158.69095860669978 kvar=48.23317350016857 Phases=3 yearly=com_kw_13777_pu

New Load.load_p1ulv73_1 conn=wye bus1=p1ulv73.1 kV=0.12 Vminpu=0.8 Vmaxpu=1.2 model=1 kW=3.963001053413761 kvar=0.9410786890170905 Phases=1 yearly=res_kw_1256_pu

New Load.load_p1ulv73_2 conn=wye bus1=p1ulv73.2 kV=0.12 Vminpu=0.8 Vmaxpu=1.2 model=1 kW=3.963001053413761 kvar=0.9410786890170905 Phases=1 yearly=res_kw_1256_pu

New Load.load_p1ulv74_1 conn=wye bus1=p1ulv74.1 kV=0.12 Vminpu=0.8 Vmaxpu=1.2 model=1 kW=4.439796889213601 kvar=1.1115159121346108 Phases=1 yearly=res_kw_457_pu

New Load.load_p1ulv74_2 conn=wye bus1=p1ulv74.2 kV=0.12 Vminpu=0.8 Vmaxpu=1.2 model=1 kW=4.439796889213601 kvar=1.1115159121346108 Phases=1 yearly=res_kw_457_pu

New Load.load_p1ulv76_1 conn=wye bus1=p1ulv76.1 kV=0.12 Vminpu=0.8 Vmaxpu=1.2 model=1 kW=6.46954486905048 kvar=1.5165440515935265 Phases=1 yearly=res_kw_1067_pu

New Load.load_p1ulv76_2 conn=wye bus1=p1ulv76.2 kV=0.12 Vminpu=0.8 Vmaxpu=1.2 model=1 kW=6.46954486905048 kvar=1.5165440515935265 Phases=1 yearly=res_kw_1067_pu

New Load.load_p1ulv77 conn=wye bus1=p1ulv77.1.2.3 kV=0.48 Vminpu=0.8 Vmaxpu=1.2 model=1 kW=44.980986689605885 kvar=12.421510871870021 Phases=3 yearly=com_kw_13585_pu

New Load.load_p1ulv78 conn=wye bus1=p1ulv78.1.2.3 kV=0.48 Vminpu=0.8 Vmaxpu=1.2 model=1 kW=36.4625269315931 kvar=11.519228571653503 Phases=3 yearly=com_kw_12847_pu

New Load.load_p1ulv81 conn=wye bus1=p1ulv81.1.2.3 kV=0.48 Vminpu=0.8 Vmaxpu=1.2 model=1 kW=92.48515047897422 kvar=28.413454233521872 Phases=3 yearly=com_kw_15165_pu

New Load.load_p1ulv82 conn=wye bus1=p1ulv82.1.2.3 kV=0.48 Vminpu=0.8 Vmaxpu=1.2 model=1 kW=174.69285410291275 kvar=45.82197168104374 Phases=3 yearly=com_kw_15000_pu

New Load.load_p1ulv83 conn=wye bus1=p1ulv83.1.2.3 kV=0.48 Vminpu=0.8 Vmaxpu=1.2 model=1 kW=158.69095860669978 kvar=48.23317350016857 Phases=3 yearly=com_kw_13777_pu

New Load.load_p1ulv84 conn=wye bus1=p1ulv84.1.2.3 kV=0.48 Vminpu=0.8 Vmaxpu=1.2 model=1 kW=65.48241523887258 kvar=17.91194958985878 Phases=3 yearly=com_kw_14859_pu

New Load.load_p1ulv85 conn=wye bus1=p1ulv85.1.2.3 kV=0.48 Vminpu=0.8 Vmaxpu=1.2 model=1 kW=147.8346199377875 kvar=40.422425754008465 Phases=3 yearly=com_kw_14007_pu

New Load.load_p1ulv87_1 conn=wye bus1=p1ulv87.1 kV=0.12 Vminpu=0.8 Vmaxpu=1.2 model=1 kW=9.666699253995569 kvar=2.090221480167897 Phases=1 yearly=res_kw_46_pu

New Load.load_p1ulv87_2 conn=wye bus1=p1ulv87.2 kV=0.12 Vminpu=0.8 Vmaxpu=1.2 model=1 kW=9.666699253995569 kvar=2.090221480167897 Phases=1 yearly=res_kw_46_pu

New Load.load_p1ulv88_1 conn=wye bus1=p1ulv88.1 kV=0.12 Vminpu=0.8 Vmaxpu=1.2 model=1 kW=4.7808294278431465 kvar=0.6499483324233782 Phases=1 yearly=res_kw_416_pu

New Load.load_p1ulv88_2 conn=wye bus1=p1ulv88.2 kV=0.12 Vminpu=0.8 Vmaxpu=1.2 model=1 kW=4.7808294278431465 kvar=0.6499483324233782 Phases=1 yearly=res_kw_416_pu

New Load.load_p1ulv89_1 conn=wye bus1=p1ulv89.1 kV=0.12 Vminpu=0.8 Vmaxpu=1.2 model=1 kW=6.294621884355657 kvar=1.2961288323966025 Phases=1 yearly=res_kw_689_pu

New Load.load_p1ulv89_2 conn=wye bus1=p1ulv89.2 kV=0.12 Vminpu=0.8 Vmaxpu=1.2 model=1 kW=6.294621884355657 kvar=1.2961288323966025 Phases=1 yearly=res_kw_689_pu

New Load.load_p1ulv90_1 conn=wye bus1=p1ulv90.1 kV=0.12 Vminpu=0.8 Vmaxpu=1.2 model=1 kW=4.926448212993724 kvar=1.2834746439893137 Phases=1 yearly=res_kw_209_pu

New Load.load_p1ulv90_2 conn=wye bus1=p1ulv90.2 kV=0.12 Vminpu=0.8 Vmaxpu=1.2 model=1 kW=4.926448212993724 kvar=1.2834746439893137 Phases=1 yearly=res_kw_209_pu

New Load.load_p1ulv91_1 conn=wye bus1=p1ulv91.1 kV=0.12 Vminpu=0.8 Vmaxpu=1.2 model=1 kW=4.658663502989286 kvar=1.3388389434895354 Phases=1 yearly=res_kw_182_pu

New Load.load_p1ulv91_2 conn=wye bus1=p1ulv91.2 kV=0.12 Vminpu=0.8 Vmaxpu=1.2 model=1 kW=4.658663502989286 kvar=1.3388389434895354 Phases=1 yearly=res_kw_182_pu

New Load.load_p1ulv92_1 conn=wye bus1=p1ulv92.1 kV=0.12 Vminpu=0.8 Vmaxpu=1.2 model=1 kW=2.1376631749204993 kvar=0.6218033466021168 Phases=1 yearly=res_kw_93_pu

New Load.load_p1ulv92_2 conn=wye bus1=p1ulv92.2 kV=0.12 Vminpu=0.8 Vmaxpu=1.2 model=1 kW=2.1376631749204993 kvar=0.6218033466021168 Phases=1 yearly=res_kw_93_pu

New Load.load_p1ulv93_1 conn=wye bus1=p1ulv93.1 kV=0.12 Vminpu=0.8 Vmaxpu=1.2 model=1 kW=2.1894046505184286 kvar=0.7281040757251952 Phases=1 yearly=res_kw_1042_pu

New Load.load_p1ulv93_2 conn=wye bus1=p1ulv93.2 kV=0.12 Vminpu=0.8 Vmaxpu=1.2 model=1 kW=2.1894046505184286 kvar=0.7281040757251952 Phases=1 yearly=res_kw_1042_pu

New Load.load_p1ulv94_1 conn=wye bus1=p1ulv94.1 kV=0.12 Vminpu=0.8 Vmaxpu=1.2 model=1 kW=2.4402285312138985 kvar=0.9342273883677934 Phases=1 yearly=res_kw_409_pu

New Load.load_p1ulv94_2 conn=wye bus1=p1ulv94.2 kV=0.12 Vminpu=0.8 Vmaxpu=1.2 model=1 kW=2.4402285312138985 kvar=0.9342273883677934 Phases=1 yearly=res_kw_409_pu

New Load.load_p1ulv95_1 conn=wye bus1=p1ulv95.1 kV=0.12 Vminpu=0.8 Vmaxpu=1.2 model=1 kW=1.8636614682402992 kvar=0.5015179682387616 Phases=1 yearly=res_kw_532_pu

New Load.load_p1ulv95_2 conn=wye bus1=p1ulv95.2 kV=0.12 Vminpu=0.8 Vmaxpu=1.2 model=1 kW=1.8636614682402992 kvar=0.5015179682387616 Phases=1 yearly=res_kw_532_pu

New Load.load_p1ulv96_1 conn=wye bus1=p1ulv96.1 kV=0.12 Vminpu=0.8 Vmaxpu=1.2 model=1 kW=5.675346369339635 kvar=1.238985226090579 Phases=1 yearly=res_kw_1186_pu

New Load.load_p1ulv96_2 conn=wye bus1=p1ulv96.2 kV=0.12 Vminpu=0.8 Vmaxpu=1.2 model=1 kW=5.675346369339635 kvar=1.238985226090579 Phases=1 yearly=res_kw_1186_pu

New Load.load_p1ulv97_1 conn=wye bus1=p1ulv97.1 kV=0.12 Vminpu=0.8 Vmaxpu=1.2 model=1 kW=3.9060227283575606 kvar=0.8578020352767629 Phases=1 yearly=res_kw_278_pu

New Load.load_p1ulv97_2 conn=wye bus1=p1ulv97.2 kV=0.12 Vminpu=0.8 Vmaxpu=1.2 model=1 kW=3.9060227283575606 kvar=0.8578020352767629 Phases=1 yearly=res_kw_278_pu

New Load.load_p1ulv98_1 conn=wye bus1=p1ulv98.1 kV=0.12 Vminpu=0.8 Vmaxpu=1.2 model=1 kW=5.020630418662337 kvar=1.4660260271132275 Phases=1 yearly=res_kw_664_pu

New Load.load_p1ulv98_2 conn=wye bus1=p1ulv98.2 kV=0.12 Vminpu=0.8 Vmaxpu=1.2 model=1 kW=5.020630418662337 kvar=1.4660260271132275 Phases=1 yearly=res_kw_664_pu

New Load.load_p1ulv4763_1 conn=wye bus1=p1ulv4763.1 kV=0.12 Vminpu=0.8 Vmaxpu=1.2 model=1 kW=2.40000228705824 kvar=1.0173787262529668 Phases=1 yearly=res_kw_1205_pu

New Load.load_p1ulv4763_2 conn=wye bus1=p1ulv4763.2 kV=0.12 Vminpu=0.8 Vmaxpu=1.2 model=1 kW=2.40000228705824 kvar=1.0173787262529668 Phases=1 yearly=res_kw_1205_pu

New Load.load_p1ulv4764_1 conn=wye bus1=p1ulv4764.1 kV=0.12 Vminpu=0.8 Vmaxpu=1.2 model=1 kW=1.8636614682402992 kvar=0.5015179682387616 Phases=1 yearly=res_kw_532_pu

New Load.load_p1ulv4764_2 conn=wye bus1=p1ulv4764.2 kV=0.12 Vminpu=0.8 Vmaxpu=1.2 model=1 kW=1.8636614682402992 kvar=0.5015179682387616 Phases=1 yearly=res_kw_532_pu

New Load.load_p1ulv4765_1 conn=wye bus1=p1ulv4765.1 kV=0.12 Vminpu=0.8 Vmaxpu=1.2 model=1 kW=4.889402611994926 kvar=1.0559288347164948 Phases=1 yearly=res_kw_1160_pu

New Load.load_p1ulv4765_2 conn=wye bus1=p1ulv4765.2 kV=0.12 Vminpu=0.8 Vmaxpu=1.2 model=1 kW=4.889402611994926 kvar=1.0559288347164948 Phases=1 yearly=res_kw_1160_pu

New Load.load_p1ulv4766_1 conn=wye bus1=p1ulv4766.1 kV=0.12 Vminpu=0.8 Vmaxpu=1.2 model=1 kW=4.658663502989286 kvar=1.3388389434895354 Phases=1 yearly=res_kw_182_pu

New Load.load_p1ulv4766_2 conn=wye bus1=p1ulv4766.2 kV=0.12 Vminpu=0.8 Vmaxpu=1.2 model=1 kW=4.658663502989286 kvar=1.3388389434895354 Phases=1 yearly=res_kw_182_pu

New Load.load_p1ulv4767 conn=wye bus1=p1ulv4767.1.2.3 kV=0.48 Vminpu=0.8 Vmaxpu=1.2 model=1 kW=29.06847666053555 kvar=5.848529560450256 Phases=3 yearly=com_kw_14619_pu

New Load.load_p1ulv4772 conn=wye bus1=p1ulv4772.1.2.3 kV=0.48 Vminpu=0.8 Vmaxpu=1.2 model=1 kW=102.83620489813865 kvar=36.81420938044198 Phases=3 yearly=com_kw_14822_pu

New Load.load_p1ulv4780 conn=wye bus1=p1ulv4780.1.2.3 kV=0.48 Vminpu=0.8 Vmaxpu=1.2 model=1 kW=44.980986689605885 kvar=12.421510871870021 Phases=3 yearly=com_kw_13585_pu

New Load.load_p1ulv5918_1 conn=wye bus1=p1ulv5918.1 kV=0.12 Vminpu=0.8 Vmaxpu=1.2 model=1 kW=4.80777430622987 kvar=1.4183053271274066 Phases=1 yearly=res_kw_1023_pu

New Load.load_p1ulv5918_2 conn=wye bus1=p1ulv5918.2 kV=0.12 Vminpu=0.8 Vmaxpu=1.2 model=1 kW=4.80777430622987 kvar=1.4183053271274066 Phases=1 yearly=res_kw_1023_pu

New Load.load_p1ulv5919_1 conn=wye bus1=p1ulv5919.1 kV=0.12 Vminpu=0.8 Vmaxpu=1.2 model=1 kW=2.1376631749204993 kvar=0.6218033466021168 Phases=1 yearly=res_kw_93_pu

New Load.load_p1ulv5919_2 conn=wye bus1=p1ulv5919.2 kV=0.12 Vminpu=0.8 Vmaxpu=1.2 model=1 kW=2.1376631749204993 kvar=0.6218033466021168 Phases=1 yearly=res_kw_93_pu

New Load.load_p1ulv5920_1 conn=wye bus1=p1ulv5920.1 kV=0.12 Vminpu=0.8 Vmaxpu=1.2 model=1 kW=8.04422437787292 kvar=1.3373848866311981 Phases=1 yearly=res_kw_695_pu

New Load.load_p1ulv5920_2 conn=wye bus1=p1ulv5920.2 kV=0.12 Vminpu=0.8 Vmaxpu=1.2 model=1 kW=8.04422437787292 kvar=1.3373848866311981 Phases=1 yearly=res_kw_695_pu

New Load.load_p1ulv5921_1 conn=wye bus1=p1ulv5921.1 kV=0.12 Vminpu=0.8 Vmaxpu=1.2 model=1 kW=3.469755020859998 kvar=0.8941520384931253 Phases=1 yearly=res_kw_4_pu

New Load.load_p1ulv5921_2 conn=wye bus1=p1ulv5921.2 kV=0.12 Vminpu=0.8 Vmaxpu=1.2 model=1 kW=3.469755020859998 kvar=0.8941520384931253 Phases=1 yearly=res_kw_4_pu

New Load.load_p1ulv5923_1 conn=wye bus1=p1ulv5923.1 kV=0.12 Vminpu=0.8 Vmaxpu=1.2 model=1 kW=1.8618983584330409 kvar=0.7337589993741062 Phases=1 yearly=res_kw_141_pu

New Load.load_p1ulv5923_2 conn=wye bus1=p1ulv5923.2 kV=0.12 Vminpu=0.8 Vmaxpu=1.2 model=1 kW=1.8618983584330409 kvar=0.7337589993741062 Phases=1 yearly=res_kw_141_pu

New Load.load_p1ulv5925_1 conn=wye bus1=p1ulv5925.1 kV=0.12 Vminpu=0.8 Vmaxpu=1.2 model=1 kW=4.5456747946519025 kvar=0.8738343809524335 Phases=1 yearly=res_kw_1142_pu

New Load.load_p1ulv5925_2 conn=wye bus1=p1ulv5925.2 kV=0.12 Vminpu=0.8 Vmaxpu=1.2 model=1 kW=4.5456747946519025 kvar=0.8738343809524335 Phases=1 yearly=res_kw_1142_pu

New Load.load_p1ulv5929_1 conn=wye bus1=p1ulv5929.1 kV=0.12 Vminpu=0.8 Vmaxpu=1.2 model=1 kW=2.0903747651596376 kvar=0.7957076388263523 Phases=1 yearly=res_kw_1223_pu

New Load.load_p1ulv5929_2 conn=wye bus1=p1ulv5929.2 kV=0.12 Vminpu=0.8 Vmaxpu=1.2 model=1 kW=2.0903747651596376 kvar=0.7957076388263523 Phases=1 yearly=res_kw_1223_pu

New Load.load_p1ulv5938_1 conn=wye bus1=p1ulv5938.1 kV=0.12 Vminpu=0.8 Vmaxpu=1.2 model=1 kW=1.8618983584330409 kvar=0.7337589993741062 Phases=1 yearly=res_kw_141_pu

New Load.load_p1ulv5938_2 conn=wye bus1=p1ulv5938.2 kV=0.12 Vminpu=0.8 Vmaxpu=1.2 model=1 kW=1.8618983584330409 kvar=0.7337589993741062 Phases=1 yearly=res_kw_141_pu

New Load.load_p1ulv5939_1 conn=wye bus1=p1ulv5939.1 kV=0.12 Vminpu=0.8 Vmaxpu=1.2 model=1 kW=9.666699253995569 kvar=2.090221480167897 Phases=1 yearly=res_kw_46_pu

New Load.load_p1ulv5939_2 conn=wye bus1=p1ulv5939.2 kV=0.12 Vminpu=0.8 Vmaxpu=1.2 model=1 kW=9.666699253995569 kvar=2.090221480167897 Phases=1 yearly=res_kw_46_pu

New Load.load_p1ulv5977_1 conn=wye bus1=p1ulv5939.1 kV=0.12 Vminpu=0.8 Vmaxpu=1.2 model=1 kW=2.605021030189827 kvar=1.0007509371876184 Phases=1 yearly=res_kw_24_pu

New Load.load_p1ulv5977_2 conn=wye bus1=p1ulv5939.2 kV=0.12 Vminpu=0.8 Vmaxpu=1.2 model=1 kW=2.605021030189827 kvar=1.0007509371876184 Phases=1 yearly=res_kw_24_pu

New Load.load_p1ulv9059_1 conn=wye bus1=p1ulv9059.1 kV=0.12 Vminpu=0.8 Vmaxpu=1.2 model=1 kW=1.4493292356011218 kvar=1.1002454873547782 Phases=1 yearly=res_kw_62_pu

New Load.load_p1ulv9059_2 conn=wye bus1=p1ulv9059.2 kV=0.12 Vminpu=0.8 Vmaxpu=1.2 model=1 kW=1.4493292356011218 kvar=1.1002454873547782 Phases=1 yearly=res_kw_62_pu

New Load.load_p1ulv9060_1 conn=wye bus1=p1ulv9060.1 kV=0.12 Vminpu=0.8 Vmaxpu=1.2 model=1 kW=2.252586941983099 kvar=1.0135983600233158 Phases=1 yearly=res_kw_853_pu

New Load.load_p1ulv9060_2 conn=wye bus1=p1ulv9060.2 kV=0.12 Vminpu=0.8 Vmaxpu=1.2 model=1 kW=2.252586941983099 kvar=1.0135983600233158 Phases=1 yearly=res_kw_853_pu

New Load.load_p1ulv9061_1 conn=wye bus1=p1ulv9061.1 kV=0.12 Vminpu=0.8 Vmaxpu=1.2 model=1 kW=2.3700113203165794 kvar=1.0419328311463634 Phases=1 yearly=res_kw_327_pu

New Load.load_p1ulv9061_2 conn=wye bus1=p1ulv9061.2 kV=0.12 Vminpu=0.8 Vmaxpu=1.2 model=1 kW=2.3700113203165794 kvar=1.0419328311463634 Phases=1 yearly=res_kw_327_pu

New Load.load_p1ulv9062_1 conn=wye bus1=p1ulv9062.1 kV=0.12 Vminpu=0.8 Vmaxpu=1.2 model=1 kW=3.2614858144948595 kvar=1.432421357457426 Phases=1 yearly=res_kw_431_pu

New Load.load_p1ulv9062_2 conn=wye bus1=p1ulv9062.2 kV=0.12 Vminpu=0.8 Vmaxpu=1.2 model=1 kW=3.2614858144948595 kvar=1.432421357457426 Phases=1 yearly=res_kw_431_pu

New Load.load_p1ulv9063_1 conn=wye bus1=p1ulv9063.1 kV=0.12 Vminpu=0.8 Vmaxpu=1.2 model=1 kW=2.252586941983099 kvar=1.0135983600233158 Phases=1 yearly=res_kw_853_pu

New Load.load_p1ulv9063_2 conn=wye bus1=p1ulv9063.2 kV=0.12 Vminpu=0.8 Vmaxpu=1.2 model=1 kW=2.252586941983099 kvar=1.0135983600233158 Phases=1 yearly=res_kw_853_pu

New Load.load_p1ulv9064_1 conn=wye bus1=p1ulv9064.1 kV=0.12 Vminpu=0.8 Vmaxpu=1.2 model=1 kW=3.2614858144948595 kvar=1.432421357457426 Phases=1 yearly=res_kw_431_pu

New Load.load_p1ulv9064_2 conn=wye bus1=p1ulv9064.2 kV=0.12 Vminpu=0.8 Vmaxpu=1.2 model=1 kW=3.2614858144948595 kvar=1.432421357457426 Phases=1 yearly=res_kw_431_pu

New Load.load_p1ulv9065_1 conn=wye bus1=p1ulv9065.1 kV=0.12 Vminpu=0.8 Vmaxpu=1.2 model=1 kW=2.252586941983099 kvar=1.0135983600233158 Phases=1 yearly=res_kw_853_pu

New Load.load_p1ulv9065_2 conn=wye bus1=p1ulv9065.2 kV=0.12 Vminpu=0.8 Vmaxpu=1.2 model=1 kW=2.252586941983099 kvar=1.0135983600233158 Phases=1 yearly=res_kw_853_pu

New Load.load_p1ulv9066_1 conn=wye bus1=p1ulv9066.1 kV=0.12 Vminpu=0.8 Vmaxpu=1.2 model=1 kW=4.255303740900178 kvar=1.3788619382740643 Phases=1 yearly=res_kw_332_pu

New Load.load_p1ulv9066_2 conn=wye bus1=p1ulv9066.2 kV=0.12 Vminpu=0.8 Vmaxpu=1.2 model=1 kW=4.255303740900178 kvar=1.3788619382740643 Phases=1 yearly=res_kw_332_pu

New Load.load_p1ulv9067_1 conn=wye bus1=p1ulv9067.1 kV=0.12 Vminpu=0.8 Vmaxpu=1.2 model=1 kW=4.255303740900178 kvar=1.3788619382740643 Phases=1 yearly=res_kw_332_pu

New Load.load_p1ulv9067_2 conn=wye bus1=p1ulv9067.2 kV=0.12 Vminpu=0.8 Vmaxpu=1.2 model=1 kW=4.255303740900178 kvar=1.3788619382740643 Phases=1 yearly=res_kw_332_pu

New Load.load_p1ulv9068_1 conn=wye bus1=p1ulv9068.1 kV=0.12 Vminpu=0.8 Vmaxpu=1.2 model=1 kW=5.493107438910514 kvar=1.5415823949133614 Phases=1 yearly=res_kw_1084_pu

New Load.load_p1ulv9068_2 conn=wye bus1=p1ulv9068.2 kV=0.12 Vminpu=0.8 Vmaxpu=1.2 model=1 kW=5.493107438910514 kvar=1.5415823949133614 Phases=1 yearly=res_kw_1084_pu

New Load.load_p1ulv9069_1 conn=wye bus1=p1ulv9069.1 kV=0.12 Vminpu=0.8 Vmaxpu=1.2 model=1 kW=3.2614858144948595 kvar=1.432421357457426 Phases=1 yearly=res_kw_431_pu

New Load.load_p1ulv9069_2 conn=wye bus1=p1ulv9069.2 kV=0.12 Vminpu=0.8 Vmaxpu=1.2 model=1 kW=3.2614858144948595 kvar=1.432421357457426 Phases=1 yearly=res_kw_431_pu

New Load.load_p1ulv9070_1 conn=wye bus1=p1ulv9070.1 kV=0.12 Vminpu=0.8 Vmaxpu=1.2 model=1 kW=3.2614858144948595 kvar=1.432421357457426 Phases=1 yearly=res_kw_431_pu

New Load.load_p1ulv9070_2 conn=wye bus1=p1ulv9070.2 kV=0.12 Vminpu=0.8 Vmaxpu=1.2 model=1 kW=3.2614858144948595 kvar=1.432421357457426 Phases=1 yearly=res_kw_431_pu

New Load.load_p1ulv9071_1 conn=wye bus1=p1ulv9071.1 kV=0.12 Vminpu=0.8 Vmaxpu=1.2 model=1 kW=2.3700113203165794 kvar=1.0419328311463634 Phases=1 yearly=res_kw_327_pu

New Load.load_p1ulv9071_2 conn=wye bus1=p1ulv9071.2 kV=0.12 Vminpu=0.8 Vmaxpu=1.2 model=1 kW=2.3700113203165794 kvar=1.0419328311463634 Phases=1 yearly=res_kw_327_pu

New Load.load_p1ulv9072_1 conn=wye bus1=p1ulv9072.1 kV=0.12 Vminpu=0.8 Vmaxpu=1.2 model=1 kW=3.2614858144948595 kvar=1.432421357457426 Phases=1 yearly=res_kw_431_pu

New Load.load_p1ulv9072_2 conn=wye bus1=p1ulv9072.2 kV=0.12 Vminpu=0.8 Vmaxpu=1.2 model=1 kW=3.2614858144948595 kvar=1.432421357457426 Phases=1 yearly=res_kw_431_pu

New Load.load_p1ulv9073_1 conn=wye bus1=p1ulv9073.1 kV=0.12 Vminpu=0.8 Vmaxpu=1.2 model=1 kW=3.2614858144948595 kvar=1.432421357457426 Phases=1 yearly=res_kw_431_pu

New Load.load_p1ulv9073_2 conn=wye bus1=p1ulv9073.2 kV=0.12 Vminpu=0.8 Vmaxpu=1.2 model=1 kW=3.2614858144948595 kvar=1.432421357457426 Phases=1 yearly=res_kw_431_pu

New Load.load_p1ulv9074_1 conn=wye bus1=p1ulv9074.1 kV=0.12 Vminpu=0.8 Vmaxpu=1.2 model=1 kW=3.2614858144948595 kvar=1.432421357457426 Phases=1 yearly=res_kw_431_pu

New Load.load_p1ulv9074_2 conn=wye bus1=p1ulv9074.2 kV=0.12 Vminpu=0.8 Vmaxpu=1.2 model=1 kW=3.2614858144948595 kvar=1.432421357457426 Phases=1 yearly=res_kw_431_pu

New Load.load_p1ulv9075_1 conn=wye bus1=p1ulv9075.1 kV=0.12 Vminpu=0.8 Vmaxpu=1.2 model=1 kW=4.255303740900178 kvar=1.3788619382740643 Phases=1 yearly=res_kw_332_pu

New Load.load_p1ulv9075_2 conn=wye bus1=p1ulv9075.2 kV=0.12 Vminpu=0.8 Vmaxpu=1.2 model=1 kW=4.255303740900178 kvar=1.3788619382740643 Phases=1 yearly=res_kw_332_pu

New Load.load_p1ulv9076_1 conn=wye bus1=p1ulv9076.1 kV=0.12 Vminpu=0.8 Vmaxpu=1.2 model=1 kW=4.255303740900178 kvar=1.3788619382740643 Phases=1 yearly=res_kw_332_pu

New Load.load_p1ulv9076_2 conn=wye bus1=p1ulv9076.2 kV=0.12 Vminpu=0.8 Vmaxpu=1.2 model=1 kW=4.255303740900178 kvar=1.3788619382740643 Phases=1 yearly=res_kw_332_pu

New Load.load_p1ulv9077_1 conn=wye bus1=p1ulv9077.1 kV=0.12 Vminpu=0.8 Vmaxpu=1.2 model=1 kW=2.252586941983099 kvar=1.0135983600233158 Phases=1 yearly=res_kw_853_pu

New Load.load_p1ulv9077_2 conn=wye bus1=p1ulv9077.2 kV=0.12 Vminpu=0.8 Vmaxpu=1.2 model=1 kW=2.252586941983099 kvar=1.0135983600233158 Phases=1 yearly=res_kw_853_pu

New Load.load_p1ulv9078_1 conn=wye bus1=p1ulv9078.1 kV=0.12 Vminpu=0.8 Vmaxpu=1.2 model=1 kW=2.3298924011300017 kvar=0.388795313922141 Phases=1 yearly=res_kw_41_pu

New Load.load_p1ulv9078_2 conn=wye bus1=p1ulv9078.2 kV=0.12 Vminpu=0.8 Vmaxpu=1.2 model=1 kW=2.3298924011300017 kvar=0.388795313922141 Phases=1 yearly=res_kw_41_pu

New Load.load_p1ulv9079_1 conn=wye bus1=p1ulv9079.1 kV=0.12 Vminpu=0.8 Vmaxpu=1.2 model=1 kW=3.2614858144948595 kvar=1.432421357457426 Phases=1 yearly=res_kw_431_pu

New Load.load_p1ulv9079_2 conn=wye bus1=p1ulv9079.2 kV=0.12 Vminpu=0.8 Vmaxpu=1.2 model=1 kW=3.2614858144948595 kvar=1.432421357457426 Phases=1 yearly=res_kw_431_pu

New Load.load_p1ulv9080_1 conn=wye bus1=p1ulv9080.1 kV=0.12 Vminpu=0.8 Vmaxpu=1.2 model=1 kW=4.255303740900178 kvar=1.3788619382740643 Phases=1 yearly=res_kw_332_pu

New Load.load_p1ulv9080_2 conn=wye bus1=p1ulv9080.2 kV=0.12 Vminpu=0.8 Vmaxpu=1.2 model=1 kW=4.255303740900178 kvar=1.3788619382740643 Phases=1 yearly=res_kw_332_pu

New Load.load_p1ulv9081_1 conn=wye bus1=p1ulv9081.1 kV=0.12 Vminpu=0.8 Vmaxpu=1.2 model=1 kW=0.17638855280953816 kvar=0.11785766630597205 Phases=1 yearly=res_kw_1229_pu

New Load.load_p1ulv9081_2 conn=wye bus1=p1ulv9081.2 kV=0.12 Vminpu=0.8 Vmaxpu=1.2 model=1 kW=0.17638855280953816 kvar=0.11785766630597205 Phases=1 yearly=res_kw_1229_pu

New Load.load_p1ulv9082_1 conn=wye bus1=p1ulv9082.1 kV=0.12 Vminpu=0.8 Vmaxpu=1.2 model=1 kW=1.4493292356011218 kvar=1.1002454873547782 Phases=1 yearly=res_kw_62_pu

New Load.load_p1ulv9082_2 conn=wye bus1=p1ulv9082.2 kV=0.12 Vminpu=0.8 Vmaxpu=1.2 model=1 kW=1.4493292356011218 kvar=1.1002454873547782 Phases=1 yearly=res_kw_62_pu

New Load.load_p1ulv9083_1 conn=wye bus1=p1ulv9083.1 kV=0.12 Vminpu=0.8 Vmaxpu=1.2 model=1 kW=0.17638855280953816 kvar=0.11785766630597205 Phases=1 yearly=res_kw_1229_pu

New Load.load_p1ulv9083_2 conn=wye bus1=p1ulv9083.2 kV=0.12 Vminpu=0.8 Vmaxpu=1.2 model=1 kW=0.17638855280953816 kvar=0.11785766630597205 Phases=1 yearly=res_kw_1229_pu

New Load.load_p1ulv9084_1 conn=wye bus1=p1ulv9084.1 kV=0.12 Vminpu=0.8 Vmaxpu=1.2 model=1 kW=0.17638855280953816 kvar=0.11785766630597205 Phases=1 yearly=res_kw_1229_pu

New Load.load_p1ulv9084_2 conn=wye bus1=p1ulv9084.2 kV=0.12 Vminpu=0.8 Vmaxpu=1.2 model=1 kW=0.17638855280953816 kvar=0.11785766630597205 Phases=1 yearly=res_kw_1229_pu

New Load.load_p1ulv9085_1 conn=wye bus1=p1ulv9085.1 kV=0.12 Vminpu=0.8 Vmaxpu=1.2 model=1 kW=4.255303740900178 kvar=1.3788619382740643 Phases=1 yearly=res_kw_332_pu

New Load.load_p1ulv9085_2 conn=wye bus1=p1ulv9085.2 kV=0.12 Vminpu=0.8 Vmaxpu=1.2 model=1 kW=4.255303740900178 kvar=1.3788619382740643 Phases=1 yearly=res_kw_332_pu

New Load.load_p1ulv9086_1 conn=wye bus1=p1ulv9086.1 kV=0.12 Vminpu=0.8 Vmaxpu=1.2 model=1 kW=2.3298924011300017 kvar=0.388795313922141 Phases=1 yearly=res_kw_41_pu

New Load.load_p1ulv9086_2 conn=wye bus1=p1ulv9086.2 kV=0.12 Vminpu=0.8 Vmaxpu=1.2 model=1 kW=2.3298924011300017 kvar=0.388795313922141 Phases=1 yearly=res_kw_41_pu

New Load.load_p1ulv9087_1 conn=wye bus1=p1ulv9087.1 kV=0.12 Vminpu=0.8 Vmaxpu=1.2 model=1 kW=4.255303740900178 kvar=1.3788619382740643 Phases=1 yearly=res_kw_332_pu

New Load.load_p1ulv9087_2 conn=wye bus1=p1ulv9087.2 kV=0.12 Vminpu=0.8 Vmaxpu=1.2 model=1 kW=4.255303740900178 kvar=1.3788619382740643 Phases=1 yearly=res_kw_332_pu

New Load.load_p1ulv9088_1 conn=wye bus1=p1ulv9087.1 kV=0.12 Vminpu=0.8 Vmaxpu=1.2 model=1 kW=2.252586941983099 kvar=1.0135983600233158 Phases=1 yearly=res_kw_853_pu

New Load.load_p1ulv9088_2 conn=wye bus1=p1ulv9087.2 kV=0.12 Vminpu=0.8 Vmaxpu=1.2 model=1 kW=2.252586941983099 kvar=1.0135983600233158 Phases=1 yearly=res_kw_853_pu

New Load.load_p1ulv9396 conn=wye bus1=p1ulv9396.1.2.3 kV=0.48 Vminpu=0.8 Vmaxpu=1.2 model=1 kW=359.6894358959385 kvar=105.981216307442 Phases=3 yearly=com_kw_12814_pu

New Load.load_p1ulv9398 conn=wye bus1=p1ulv9398.1.2.3 kV=0.48 Vminpu=0.8 Vmaxpu=1.2 model=1 kW=177.35593340914244 kvar=55.63579249289259 Phases=3 yearly=com_kw_12942_pu

New Load.load_p1ulv9400 conn=wye bus1=p1ulv9400.1.2.3 kV=0.48 Vminpu=0.8 Vmaxpu=1.2 model=1 kW=20.3910576075888 kvar=5.163696871380699 Phases=3 yearly=com_kw_15153_pu

New Load.load_p1umv17 conn=wye bus1=p1umv17.1.2.3 kV=12.47 Vminpu=0.8 Vmaxpu=1.2 model=1 kW=501.4166135095707 kvar=84.66172832325124 Phases=3 yearly=com_kw_13965_pu

New Load.load_p1ulv10495_1 conn=wye bus1=p1ulv10495.1 kV=0.12 Vminpu=0.8 Vmaxpu=1.2 model=1 kW=5.6593015111322105 kvar=1.2761251920573724 Phases=1 yearly=res_kw_324_pu

New Load.load_p1ulv10495_2 conn=wye bus1=p1ulv10495.2 kV=0.12 Vminpu=0.8 Vmaxpu=1.2 model=1 kW=5.6593015111322105 kvar=1.2761251920573724 Phases=1 yearly=res_kw_324_pu

New Load.load_p1ulv10499_1 conn=wye bus1=p1ulv10499.1 kV=0.12 Vminpu=0.8 Vmaxpu=1.2 model=1 kW=5.991917116566147 kvar=1.6692124001399427 Phases=1 yearly=res_kw_314_pu

New Load.load_p1ulv10499_2 conn=wye bus1=p1ulv10499.2 kV=0.12 Vminpu=0.8 Vmaxpu=1.2 model=1 kW=5.991917116566147 kvar=1.6692124001399427 Phases=1 yearly=res_kw_314_pu

New Load.load_p1ulv10500_1 conn=wye bus1=p1ulv10500.1 kV=0.12 Vminpu=0.8 Vmaxpu=1.2 model=1 kW=3.3701610259235064 kvar=1.065454990641787 Phases=1 yearly=res_kw_1037_pu

New Load.load_p1ulv10500_2 conn=wye bus1=p1ulv10500.2 kV=0.12 Vminpu=0.8 Vmaxpu=1.2 model=1 kW=3.3701610259235064 kvar=1.065454990641787 Phases=1 yearly=res_kw_1037_pu

New Load.load_p1ulv10501_1 conn=wye bus1=p1ulv10501.1 kV=0.12 Vminpu=0.8 Vmaxpu=1.2 model=1 kW=6.520159505202592 kvar=1.1378587223610979 Phases=1 yearly=res_kw_879_pu

New Load.load_p1ulv10501_2 conn=wye bus1=p1ulv10501.2 kV=0.12 Vminpu=0.8 Vmaxpu=1.2 model=1 kW=6.520159505202592 kvar=1.1378587223610979 Phases=1 yearly=res_kw_879_pu

New Load.load_p1ulv10502_1 conn=wye bus1=p1ulv10502.1 kV=0.12 Vminpu=0.8 Vmaxpu=1.2 model=1 kW=4.78815623948431 kvar=1.2110296754961107 Phases=1 yearly=res_kw_842_pu

New Load.load_p1ulv10502_2 conn=wye bus1=p1ulv10502.2 kV=0.12 Vminpu=0.8 Vmaxpu=1.2 model=1 kW=4.78815623948431 kvar=1.2110296754961107 Phases=1 yearly=res_kw_842_pu

New Load.load_p1ulv10559 conn=wye bus1=p1ulv10559.1.2.3 kV=0.48 Vminpu=0.8 Vmaxpu=1.2 model=1 kW=44.8919586983534 kvar=12.820254420156601 Phases=3 yearly=com_kw_13158_pu

New Load.load_p1ulv10560 conn=wye bus1=p1ulv10560.1.2.3 kV=0.48 Vminpu=0.8 Vmaxpu=1.2 model=1 kW=44.8919586983534 kvar=12.820254420156601 Phases=3 yearly=com_kw_13158_pu

New Load.load_p1ulv10561_1 conn=wye bus1=p1ulv10561.1 kV=0.12 Vminpu=0.8 Vmaxpu=1.2 model=1 kW=3.2614858144948595 kvar=1.432421357457426 Phases=1 yearly=res_kw_431_pu

New Load.load_p1ulv10561_2 conn=wye bus1=p1ulv10561.2 kV=0.12 Vminpu=0.8 Vmaxpu=1.2 model=1 kW=3.2614858144948595 kvar=1.432421357457426 Phases=1 yearly=res_kw_431_pu

New Load.load_p1ulv10562_1 conn=wye bus1=p1ulv10562.1 kV=0.12 Vminpu=0.8 Vmaxpu=1.2 model=1 kW=3.2614858144948595 kvar=1.432421357457426 Phases=1 yearly=res_kw_431_pu

New Load.load_p1ulv10562_2 conn=wye bus1=p1ulv10562.2 kV=0.12 Vminpu=0.8 Vmaxpu=1.2 model=1 kW=3.2614858144948595 kvar=1.432421357457426 Phases=1 yearly=res_kw_431_pu

New Load.load_p1ulv10563_1 conn=wye bus1=p1ulv10563.1 kV=0.12 Vminpu=0.8 Vmaxpu=1.2 model=1 kW=1.4493292356011218 kvar=1.1002454873547782 Phases=1 yearly=res_kw_62_pu

New Load.load_p1ulv10563_2 conn=wye bus1=p1ulv10563.2 kV=0.12 Vminpu=0.8 Vmaxpu=1.2 model=1 kW=1.4493292356011218 kvar=1.1002454873547782 Phases=1 yearly=res_kw_62_pu

New Load.load_p1ulv10564_1 conn=wye bus1=p1ulv10561.1 kV=0.12 Vminpu=0.8 Vmaxpu=1.2 model=1 kW=1.4493292356011218 kvar=1.1002454873547782 Phases=1 yearly=res_kw_62_pu

New Load.load_p1ulv10564_2 conn=wye bus1=p1ulv10561.2 kV=0.12 Vminpu=0.8 Vmaxpu=1.2 model=1 kW=1.4493292356011218 kvar=1.1002454873547782 Phases=1 yearly=res_kw_62_pu

New Load.load_p1ulv10565_1 conn=wye bus1=p1ulv10565.1 kV=0.12 Vminpu=0.8 Vmaxpu=1.2 model=1 kW=0.17638855280953816 kvar=0.11785766630597205 Phases=1 yearly=res_kw_1229_pu

New Load.load_p1ulv10565_2 conn=wye bus1=p1ulv10565.2 kV=0.12 Vminpu=0.8 Vmaxpu=1.2 model=1 kW=0.17638855280953816 kvar=0.11785766630597205 Phases=1 yearly=res_kw_1229_pu

New Load.load_p1ulv10566_1 conn=wye bus1=p1ulv10566.1 kV=0.12 Vminpu=0.8 Vmaxpu=1.2 model=1 kW=0.17638855280953816 kvar=0.11785766630597205 Phases=1 yearly=res_kw_1229_pu

New Load.load_p1ulv10566_2 conn=wye bus1=p1ulv10566.2 kV=0.12 Vminpu=0.8 Vmaxpu=1.2 model=1 kW=0.17638855280953816 kvar=0.11785766630597205 Phases=1 yearly=res_kw_1229_pu

New Load.load_p1ulv10567_1 conn=wye bus1=p1ulv10567.1 kV=0.12 Vminpu=0.8 Vmaxpu=1.2 model=1 kW=0.17638855280953816 kvar=0.11785766630597205 Phases=1 yearly=res_kw_1229_pu

New Load.load_p1ulv10567_2 conn=wye bus1=p1ulv10567.2 kV=0.12 Vminpu=0.8 Vmaxpu=1.2 model=1 kW=0.17638855280953816 kvar=0.11785766630597205 Phases=1 yearly=res_kw_1229_pu

New Load.load_p1ulv10568_1 conn=wye bus1=p1ulv10568.1 kV=0.12 Vminpu=0.8 Vmaxpu=1.2 model=1 kW=0.17638855280953816 kvar=0.11785766630597205 Phases=1 yearly=res_kw_1229_pu

New Load.load_p1ulv10568_2 conn=wye bus1=p1ulv10568.2 kV=0.12 Vminpu=0.8 Vmaxpu=1.2 model=1 kW=0.17638855280953816 kvar=0.11785766630597205 Phases=1 yearly=res_kw_1229_pu

New Load.load_p1ulv10569_1 conn=wye bus1=p1ulv10569.1 kV=0.12 Vminpu=0.8 Vmaxpu=1.2 model=1 kW=3.2614858144948595 kvar=1.432421357457426 Phases=1 yearly=res_kw_431_pu

New Load.load_p1ulv10569_2 conn=wye bus1=p1ulv10569.2 kV=0.12 Vminpu=0.8 Vmaxpu=1.2 model=1 kW=3.2614858144948595 kvar=1.432421357457426 Phases=1 yearly=res_kw_431_pu

New Load.load_p1ulv10570_1 conn=wye bus1=p1ulv10570.1 kV=0.12 Vminpu=0.8 Vmaxpu=1.2 model=1 kW=3.2614858144948595 kvar=1.432421357457426 Phases=1 yearly=res_kw_431_pu

New Load.load_p1ulv10570_2 conn=wye bus1=p1ulv10570.2 kV=0.12 Vminpu=0.8 Vmaxpu=1.2 model=1 kW=3.2614858144948595 kvar=1.432421357457426 Phases=1 yearly=res_kw_431_pu

New Load.load_p1ulv10571_1 conn=wye bus1=p1ulv10571.1 kV=0.12 Vminpu=0.8 Vmaxpu=1.2 model=1 kW=1.4493292356011218 kvar=1.1002454873547782 Phases=1 yearly=res_kw_62_pu

New Load.load_p1ulv10571_2 conn=wye bus1=p1ulv10571.2 kV=0.12 Vminpu=0.8 Vmaxpu=1.2 model=1 kW=1.4493292356011218 kvar=1.1002454873547782 Phases=1 yearly=res_kw_62_pu

New Load.load_p1ulv10572_1 conn=wye bus1=p1ulv10572.1 kV=0.12 Vminpu=0.8 Vmaxpu=1.2 model=1 kW=0.17638855280953816 kvar=0.11785766630597205 Phases=1 yearly=res_kw_1229_pu

New Load.load_p1ulv10572_2 conn=wye bus1=p1ulv10572.2 kV=0.12 Vminpu=0.8 Vmaxpu=1.2 model=1 kW=0.17638855280953816 kvar=0.11785766630597205 Phases=1 yearly=res_kw_1229_pu

New Load.load_p1ulv10573_1 conn=wye bus1=p1ulv10573.1 kV=0.12 Vminpu=0.8 Vmaxpu=1.2 model=1 kW=1.2112005619473556 kvar=0.3318024399989204 Phases=1 yearly=res_kw_1194_pu
