New Loadshape.GSO_36.0721_-79.9153_15_270 npts= 35040 interval=0.25 mult = (file=../../../../../profiles/GSO_36.0721_-79.9153_15_270.csv)

New Loadshape.GSO_36.0721_-79.9153_15_135 npts= 35040 interval=0.25 mult = (file=../../../../../profiles/GSO_36.0721_-79.9153_15_135.csv)

New Loadshape.GSO_36.0721_-79.9153_25_180 npts= 35040 interval=0.25 mult = (file=../../../../../profiles/GSO_36.0721_-79.9153_25_180.csv)

New Loadshape.GSO_36.0721_-79.9153_15_90 npts= 35040 interval=0.25 mult = (file=../../../../../profiles/GSO_36.0721_-79.9153_15_90.csv)

New Loadshape.GSO_36.0721_-79.9153_25_225 npts= 35040 interval=0.25 mult = (file=../../../../../profiles/GSO_36.0721_-79.9153_25_225.csv)

New Loadshape.GSO_36.0721_-79.9153_15_180 npts= 35040 interval=0.25 mult = (file=../../../../../profiles/GSO_36.0721_-79.9153_15_180.csv)

New Loadshape.GSO_36.0721_-79.9153_25_270 npts= 35040 interval=0.25 mult = (file=../../../../../profiles/GSO_36.0721_-79.9153_25_270.csv)

New Loadshape.GSO_36.0721_-79.9153_45_225 npts= 35040 interval=0.25 mult = (file=../../../../../profiles/GSO_36.0721_-79.9153_45_225.csv)

New Loadshape.GSO_36.0721_-79.9153_15_225 npts= 35040 interval=0.25 mult = (file=../../../../../profiles/GSO_36.0721_-79.9153_15_225.csv)

New Loadshape.GSO_36.0721_-79.9153_35_225 npts= 35040 interval=0.25 mult = (file=../../../../../profiles/GSO_36.0721_-79.9153_35_225.csv)

New Loadshape.GSO_36.0721_-79.9153_45_135 npts= 35040 interval=0.25 mult = (file=../../../../../profiles/GSO_36.0721_-79.9153_45_135.csv)

New Loadshape.GSO_36.0721_-79.9153_35_180 npts= 35040 interval=0.25 mult = (file=../../../../../profiles/GSO_36.0721_-79.9153_35_180.csv)

New Loadshape.GSO_36.0721_-79.9153_25_90 npts= 35040 interval=0.25 mult = (file=../../../../../profiles/GSO_36.0721_-79.9153_25_90.csv)

New Loadshape.GSO_36.0721_-79.9153_35_90 npts= 35040 interval=0.25 mult = (file=../../../../../profiles/GSO_36.0721_-79.9153_35_90.csv)

New Loadshape.GSO_36.0721_-79.9153_35_270 npts= 35040 interval=0.25 mult = (file=../../../../../profiles/GSO_36.0721_-79.9153_35_270.csv)

New Loadshape.GSO_36.0721_-79.9153_25_135 npts= 35040 interval=0.25 mult = (file=../../../../../profiles/GSO_36.0721_-79.9153_25_135.csv)

New Loadshape.GSO_36.0721_-79.9153_45_180 npts= 35040 interval=0.25 mult = (file=../../../../../profiles/GSO_36.0721_-79.9153_45_180.csv)

New Loadshape.GSO_36.0721_-79.9153_45_90 npts= 35040 interval=0.25 mult = (file=../../../../../profiles/GSO_36.0721_-79.9153_45_90.csv)

New Loadshape.GSO_36.0721_-79.9153_35_135 npts= 35040 interval=0.25 mult = (file=../../../../../profiles/GSO_36.0721_-79.9153_35_135.csv)

New Loadshape.GSO_36.0721_-79.9153_55_180 npts= 35040 interval=0.25 mult = (file=../../../../../profiles/GSO_36.0721_-79.9153_55_180.csv)

New Loadshape.GSO_36.0721_-79.9153_55_225 npts= 35040 interval=0.25 mult = (file=../../../../../profiles/GSO_36.0721_-79.9153_55_225.csv)

New Loadshape.GSO_36.0721_-79.9153_55_270 npts= 35040 interval=0.25 mult = (file=../../../../../profiles/GSO_36.0721_-79.9153_55_270.csv)

New Loadshape.GSO_36.0721_-79.9153_45_270 npts= 35040 interval=0.25 mult = (file=../../../../../profiles/GSO_36.0721_-79.9153_45_270.csv)

New Loadshape.res_kw_409_pu npts= 35040 interval=0.25 mult = (file=../../../../../profiles/res_kw_409_pu.csv) qmult = (file=../../../../../profiles/res_kvar_409_pu.csv)

New Loadshape.res_kw_861_pu npts= 35040 interval=0.25 mult = (file=../../../../../profiles/res_kw_861_pu.csv) qmult = (file=../../../../../profiles/res_kvar_861_pu.csv)

New Loadshape.res_kw_24_pu npts= 35040 interval=0.25 mult = (file=../../../../../profiles/res_kw_24_pu.csv) qmult = (file=../../../../../profiles/res_kvar_24_pu.csv)

New Loadshape.res_kw_250_pu npts= 35040 interval=0.25 mult = (file=../../../../../profiles/res_kw_250_pu.csv) qmult = (file=../../../../../profiles/res_kvar_250_pu.csv)

New Loadshape.res_kw_772_pu npts= 35040 interval=0.25 mult = (file=../../../../../profiles/res_kw_772_pu.csv) qmult = (file=../../../../../profiles/res_kvar_772_pu.csv)

New Loadshape.res_kw_355_pu npts= 35040 interval=0.25 mult = (file=../../../../../profiles/res_kw_355_pu.csv) qmult = (file=../../../../../profiles/res_kvar_355_pu.csv)

New Loadshape.res_kw_208_pu npts= 35040 interval=0.25 mult = (file=../../../../../profiles/res_kw_208_pu.csv) qmult = (file=../../../../../profiles/res_kvar_208_pu.csv)

New Loadshape.res_kw_825_pu npts= 35040 interval=0.25 mult = (file=../../../../../profiles/res_kw_825_pu.csv) qmult = (file=../../../../../profiles/res_kvar_825_pu.csv)

New Loadshape.res_kw_1099_pu npts= 35040 interval=0.25 mult = (file=../../../../../profiles/res_kw_1099_pu.csv) qmult = (file=../../../../../profiles/res_kvar_1099_pu.csv)

New Loadshape.res_kw_512_pu npts= 35040 interval=0.25 mult = (file=../../../../../profiles/res_kw_512_pu.csv) qmult = (file=../../../../../profiles/res_kvar_512_pu.csv)

New Loadshape.res_kw_532_pu npts= 35040 interval=0.25 mult = (file=../../../../../profiles/res_kw_532_pu.csv) qmult = (file=../../../../../profiles/res_kvar_532_pu.csv)

New Loadshape.res_kw_231_pu npts= 35040 interval=0.25 mult = (file=../../../../../profiles/res_kw_231_pu.csv) qmult = (file=../../../../../profiles/res_kvar_231_pu.csv)

New Loadshape.res_kw_1258_pu npts= 35040 interval=0.25 mult = (file=../../../../../profiles/res_kw_1258_pu.csv) qmult = (file=../../../../../profiles/res_kvar_1258_pu.csv)

New Loadshape.res_kw_863_pu npts= 35040 interval=0.25 mult = (file=../../../../../profiles/res_kw_863_pu.csv) qmult = (file=../../../../../profiles/res_kvar_863_pu.csv)

New Loadshape.res_kw_4_pu npts= 35040 interval=0.25 mult = (file=../../../../../profiles/res_kw_4_pu.csv) qmult = (file=../../../../../profiles/res_kvar_4_pu.csv)

New Loadshape.res_kw_691_pu npts= 35040 interval=0.25 mult = (file=../../../../../profiles/res_kw_691_pu.csv) qmult = (file=../../../../../profiles/res_kvar_691_pu.csv)

New Loadshape.res_kw_93_pu npts= 35040 interval=0.25 mult = (file=../../../../../profiles/res_kw_93_pu.csv) qmult = (file=../../../../../profiles/res_kvar_93_pu.csv)

New Loadshape.res_kw_197_pu npts= 35040 interval=0.25 mult = (file=../../../../../profiles/res_kw_197_pu.csv) qmult = (file=../../../../../profiles/res_kvar_197_pu.csv)

New Loadshape.res_kw_707_pu npts= 35040 interval=0.25 mult = (file=../../../../../profiles/res_kw_707_pu.csv) qmult = (file=../../../../../profiles/res_kvar_707_pu.csv)

New Loadshape.res_kw_1115_pu npts= 35040 interval=0.25 mult = (file=../../../../../profiles/res_kw_1115_pu.csv) qmult = (file=../../../../../profiles/res_kvar_1115_pu.csv)

New Loadshape.res_kw_40_pu npts= 35040 interval=0.25 mult = (file=../../../../../profiles/res_kw_40_pu.csv) qmult = (file=../../../../../profiles/res_kvar_40_pu.csv)

New Loadshape.res_kw_46_pu npts= 35040 interval=0.25 mult = (file=../../../../../profiles/res_kw_46_pu.csv) qmult = (file=../../../../../profiles/res_kvar_46_pu.csv)

New Loadshape.res_kw_128_pu npts= 35040 interval=0.25 mult = (file=../../../../../profiles/res_kw_128_pu.csv) qmult = (file=../../../../../profiles/res_kvar_128_pu.csv)

New Loadshape.res_kw_523_pu npts= 35040 interval=0.25 mult = (file=../../../../../profiles/res_kw_523_pu.csv) qmult = (file=../../../../../profiles/res_kvar_523_pu.csv)

New Loadshape.res_kw_280_pu npts= 35040 interval=0.25 mult = (file=../../../../../profiles/res_kw_280_pu.csv) qmult = (file=../../../../../profiles/res_kvar_280_pu.csv)

New Loadshape.res_kw_33_pu npts= 35040 interval=0.25 mult = (file=../../../../../profiles/res_kw_33_pu.csv) qmult = (file=../../../../../profiles/res_kvar_33_pu.csv)

New Loadshape.res_kw_1037_pu npts= 35040 interval=0.25 mult = (file=../../../../../profiles/res_kw_1037_pu.csv) qmult = (file=../../../../../profiles/res_kvar_1037_pu.csv)

New Loadshape.res_kw_1042_pu npts= 35040 interval=0.25 mult = (file=../../../../../profiles/res_kw_1042_pu.csv) qmult = (file=../../../../../profiles/res_kvar_1042_pu.csv)

New Loadshape.res_kw_196_pu npts= 35040 interval=0.25 mult = (file=../../../../../profiles/res_kw_196_pu.csv) qmult = (file=../../../../../profiles/res_kvar_196_pu.csv)

New Loadshape.res_kw_627_pu npts= 35040 interval=0.25 mult = (file=../../../../../profiles/res_kw_627_pu.csv) qmult = (file=../../../../../profiles/res_kvar_627_pu.csv)

New Loadshape.res_kw_517_pu npts= 35040 interval=0.25 mult = (file=../../../../../profiles/res_kw_517_pu.csv) qmult = (file=../../../../../profiles/res_kvar_517_pu.csv)

New Loadshape.res_kw_1160_pu npts= 35040 interval=0.25 mult = (file=../../../../../profiles/res_kw_1160_pu.csv) qmult = (file=../../../../../profiles/res_kvar_1160_pu.csv)

New Loadshape.res_kw_1273_pu npts= 35040 interval=0.25 mult = (file=../../../../../profiles/res_kw_1273_pu.csv) qmult = (file=../../../../../profiles/res_kvar_1273_pu.csv)

New Loadshape.res_kw_842_pu npts= 35040 interval=0.25 mult = (file=../../../../../profiles/res_kw_842_pu.csv) qmult = (file=../../../../../profiles/res_kvar_842_pu.csv)

New Loadshape.res_kw_283_pu npts= 35040 interval=0.25 mult = (file=../../../../../profiles/res_kw_283_pu.csv) qmult = (file=../../../../../profiles/res_kvar_283_pu.csv)

New Loadshape.res_kw_626_pu npts= 35040 interval=0.25 mult = (file=../../../../../profiles/res_kw_626_pu.csv) qmult = (file=../../../../../profiles/res_kvar_626_pu.csv)

New Loadshape.res_kw_1162_pu npts= 35040 interval=0.25 mult = (file=../../../../../profiles/res_kw_1162_pu.csv) qmult = (file=../../../../../profiles/res_kvar_1162_pu.csv)

New Loadshape.res_kw_421_pu npts= 35040 interval=0.25 mult = (file=../../../../../profiles/res_kw_421_pu.csv) qmult = (file=../../../../../profiles/res_kvar_421_pu.csv)

New Loadshape.res_kw_146_pu npts= 35040 interval=0.25 mult = (file=../../../../../profiles/res_kw_146_pu.csv) qmult = (file=../../../../../profiles/res_kvar_146_pu.csv)

New Loadshape.res_kw_278_pu npts= 35040 interval=0.25 mult = (file=../../../../../profiles/res_kw_278_pu.csv) qmult = (file=../../../../../profiles/res_kvar_278_pu.csv)

New Loadshape.res_kw_1248_pu npts= 35040 interval=0.25 mult = (file=../../../../../profiles/res_kw_1248_pu.csv) qmult = (file=../../../../../profiles/res_kvar_1248_pu.csv)

New Loadshape.res_kw_670_pu npts= 35040 interval=0.25 mult = (file=../../../../../profiles/res_kw_670_pu.csv) qmult = (file=../../../../../profiles/res_kvar_670_pu.csv)

New Loadshape.res_kw_170_pu npts= 35040 interval=0.25 mult = (file=../../../../../profiles/res_kw_170_pu.csv) qmult = (file=../../../../../profiles/res_kvar_170_pu.csv)

New Loadshape.res_kw_689_pu npts= 35040 interval=0.25 mult = (file=../../../../../profiles/res_kw_689_pu.csv) qmult = (file=../../../../../profiles/res_kvar_689_pu.csv)

New Loadshape.res_kw_225_pu npts= 35040 interval=0.25 mult = (file=../../../../../profiles/res_kw_225_pu.csv) qmult = (file=../../../../../profiles/res_kvar_225_pu.csv)

New Loadshape.res_kw_199_pu npts= 35040 interval=0.25 mult = (file=../../../../../profiles/res_kw_199_pu.csv) qmult = (file=../../../../../profiles/res_kvar_199_pu.csv)

New Loadshape.res_kw_229_pu npts= 35040 interval=0.25 mult = (file=../../../../../profiles/res_kw_229_pu.csv) qmult = (file=../../../../../profiles/res_kvar_229_pu.csv)

New Loadshape.res_kw_1267_pu npts= 35040 interval=0.25 mult = (file=../../../../../profiles/res_kw_1267_pu.csv) qmult = (file=../../../../../profiles/res_kvar_1267_pu.csv)

New Loadshape.res_kw_1094_pu npts= 35040 interval=0.25 mult = (file=../../../../../profiles/res_kw_1094_pu.csv) qmult = (file=../../../../../profiles/res_kvar_1094_pu.csv)

New Loadshape.res_kw_314_pu npts= 35040 interval=0.25 mult = (file=../../../../../profiles/res_kw_314_pu.csv) qmult = (file=../../../../../profiles/res_kvar_314_pu.csv)

New Loadshape.res_kw_695_pu npts= 35040 interval=0.25 mult = (file=../../../../../profiles/res_kw_695_pu.csv) qmult = (file=../../../../../profiles/res_kvar_695_pu.csv)

New Loadshape.res_kw_807_pu npts= 35040 interval=0.25 mult = (file=../../../../../profiles/res_kw_807_pu.csv) qmult = (file=../../../../../profiles/res_kvar_807_pu.csv)

New Loadshape.res_kw_1228_pu npts= 35040 interval=0.25 mult = (file=../../../../../profiles/res_kw_1228_pu.csv) qmult = (file=../../../../../profiles/res_kvar_1228_pu.csv)

New Loadshape.res_kw_1205_pu npts= 35040 interval=0.25 mult = (file=../../../../../profiles/res_kw_1205_pu.csv) qmult = (file=../../../../../profiles/res_kvar_1205_pu.csv)

New Loadshape.res_kw_843_pu npts= 35040 interval=0.25 mult = (file=../../../../../profiles/res_kw_843_pu.csv) qmult = (file=../../../../../profiles/res_kvar_843_pu.csv)

New Loadshape.res_kw_454_pu npts= 35040 interval=0.25 mult = (file=../../../../../profiles/res_kw_454_pu.csv) qmult = (file=../../../../../profiles/res_kvar_454_pu.csv)

New Loadshape.res_kw_846_pu npts= 35040 interval=0.25 mult = (file=../../../../../profiles/res_kw_846_pu.csv) qmult = (file=../../../../../profiles/res_kvar_846_pu.csv)

New Loadshape.res_kw_598_pu npts= 35040 interval=0.25 mult = (file=../../../../../profiles/res_kw_598_pu.csv) qmult = (file=../../../../../profiles/res_kvar_598_pu.csv)

New Loadshape.res_kw_462_pu npts= 35040 interval=0.25 mult = (file=../../../../../profiles/res_kw_462_pu.csv) qmult = (file=../../../../../profiles/res_kvar_462_pu.csv)

New Loadshape.res_kw_522_pu npts= 35040 interval=0.25 mult = (file=../../../../../profiles/res_kw_522_pu.csv) qmult = (file=../../../../../profiles/res_kvar_522_pu.csv)

New Loadshape.res_kw_1157_pu npts= 35040 interval=0.25 mult = (file=../../../../../profiles/res_kw_1157_pu.csv) qmult = (file=../../../../../profiles/res_kvar_1157_pu.csv)

New Loadshape.res_kw_879_pu npts= 35040 interval=0.25 mult = (file=../../../../../profiles/res_kw_879_pu.csv) qmult = (file=../../../../../profiles/res_kvar_879_pu.csv)

New Loadshape.res_kw_470_pu npts= 35040 interval=0.25 mult = (file=../../../../../profiles/res_kw_470_pu.csv) qmult = (file=../../../../../profiles/res_kvar_470_pu.csv)

New Loadshape.res_kw_1181_pu npts= 35040 interval=0.25 mult = (file=../../../../../profiles/res_kw_1181_pu.csv) qmult = (file=../../../../../profiles/res_kvar_1181_pu.csv)

New Loadshape.res_kw_654_pu npts= 35040 interval=0.25 mult = (file=../../../../../profiles/res_kw_654_pu.csv) qmult = (file=../../../../../profiles/res_kvar_654_pu.csv)

New Loadshape.res_kw_1041_pu npts= 35040 interval=0.25 mult = (file=../../../../../profiles/res_kw_1041_pu.csv) qmult = (file=../../../../../profiles/res_kvar_1041_pu.csv)

New Loadshape.res_kw_461_pu npts= 35040 interval=0.25 mult = (file=../../../../../profiles/res_kw_461_pu.csv) qmult = (file=../../../../../profiles/res_kvar_461_pu.csv)

New Loadshape.res_kw_1266_pu npts= 35040 interval=0.25 mult = (file=../../../../../profiles/res_kw_1266_pu.csv) qmult = (file=../../../../../profiles/res_kvar_1266_pu.csv)

New Loadshape.res_kw_1009_pu npts= 35040 interval=0.25 mult = (file=../../../../../profiles/res_kw_1009_pu.csv) qmult = (file=../../../../../profiles/res_kvar_1009_pu.csv)

New Loadshape.res_kw_408_pu npts= 35040 interval=0.25 mult = (file=../../../../../profiles/res_kw_408_pu.csv) qmult = (file=../../../../../profiles/res_kvar_408_pu.csv)

New Loadshape.res_kw_1256_pu npts= 35040 interval=0.25 mult = (file=../../../../../profiles/res_kw_1256_pu.csv) qmult = (file=../../../../../profiles/res_kvar_1256_pu.csv)

New Loadshape.res_kw_2_pu npts= 35040 interval=0.25 mult = (file=../../../../../profiles/res_kw_2_pu.csv) qmult = (file=../../../../../profiles/res_kvar_2_pu.csv)

New Loadshape.res_kw_1276_pu npts= 35040 interval=0.25 mult = (file=../../../../../profiles/res_kw_1276_pu.csv) qmult = (file=../../../../../profiles/res_kvar_1276_pu.csv)

New Loadshape.res_kw_271_pu npts= 35040 interval=0.25 mult = (file=../../../../../profiles/res_kw_271_pu.csv) qmult = (file=../../../../../profiles/res_kvar_271_pu.csv)

New Loadshape.res_kw_331_pu npts= 35040 interval=0.25 mult = (file=../../../../../profiles/res_kw_331_pu.csv) qmult = (file=../../../../../profiles/res_kvar_331_pu.csv)

New Loadshape.res_kw_245_pu npts= 35040 interval=0.25 mult = (file=../../../../../profiles/res_kw_245_pu.csv) qmult = (file=../../../../../profiles/res_kvar_245_pu.csv)

New Loadshape.res_kw_552_pu npts= 35040 interval=0.25 mult = (file=../../../../../profiles/res_kw_552_pu.csv) qmult = (file=../../../../../profiles/res_kvar_552_pu.csv)

New Loadshape.res_kw_1032_pu npts= 35040 interval=0.25 mult = (file=../../../../../profiles/res_kw_1032_pu.csv) qmult = (file=../../../../../profiles/res_kvar_1032_pu.csv)

New Loadshape.res_kw_123_pu npts= 35040 interval=0.25 mult = (file=../../../../../profiles/res_kw_123_pu.csv) qmult = (file=../../../../../profiles/res_kvar_123_pu.csv)

New Loadshape.res_kw_76_pu npts= 35040 interval=0.25 mult = (file=../../../../../profiles/res_kw_76_pu.csv) qmult = (file=../../../../../profiles/res_kvar_76_pu.csv)

New Loadshape.res_kw_1186_pu npts= 35040 interval=0.25 mult = (file=../../../../../profiles/res_kw_1186_pu.csv) qmult = (file=../../../../../profiles/res_kvar_1186_pu.csv)

New Loadshape.res_kw_963_pu npts= 35040 interval=0.25 mult = (file=../../../../../profiles/res_kw_963_pu.csv) qmult = (file=../../../../../profiles/res_kvar_963_pu.csv)

New Loadshape.res_kw_548_pu npts= 35040 interval=0.25 mult = (file=../../../../../profiles/res_kw_548_pu.csv) qmult = (file=../../../../../profiles/res_kvar_548_pu.csv)

New Loadshape.res_kw_1149_pu npts= 35040 interval=0.25 mult = (file=../../../../../profiles/res_kw_1149_pu.csv) qmult = (file=../../../../../profiles/res_kvar_1149_pu.csv)

New Loadshape.res_kw_98_pu npts= 35040 interval=0.25 mult = (file=../../../../../profiles/res_kw_98_pu.csv) qmult = (file=../../../../../profiles/res_kvar_98_pu.csv)

New Loadshape.res_kw_97_pu npts= 35040 interval=0.25 mult = (file=../../../../../profiles/res_kw_97_pu.csv) qmult = (file=../../../../../profiles/res_kvar_97_pu.csv)

New Loadshape.res_kw_697_pu npts= 35040 interval=0.25 mult = (file=../../../../../profiles/res_kw_697_pu.csv) qmult = (file=../../../../../profiles/res_kvar_697_pu.csv)

New Loadshape.res_kw_1089_pu npts= 35040 interval=0.25 mult = (file=../../../../../profiles/res_kw_1089_pu.csv) qmult = (file=../../../../../profiles/res_kvar_1089_pu.csv)

New Loadshape.res_kw_497_pu npts= 35040 interval=0.25 mult = (file=../../../../../profiles/res_kw_497_pu.csv) qmult = (file=../../../../../profiles/res_kvar_497_pu.csv)

New Loadshape.res_kw_656_pu npts= 35040 interval=0.25 mult = (file=../../../../../profiles/res_kw_656_pu.csv) qmult = (file=../../../../../profiles/res_kvar_656_pu.csv)

New Loadshape.res_kw_630_pu npts= 35040 interval=0.25 mult = (file=../../../../../profiles/res_kw_630_pu.csv) qmult = (file=../../../../../profiles/res_kvar_630_pu.csv)

New Loadshape.res_kw_380_pu npts= 35040 interval=0.25 mult = (file=../../../../../profiles/res_kw_380_pu.csv) qmult = (file=../../../../../profiles/res_kvar_380_pu.csv)

New Loadshape.res_kw_1223_pu npts= 35040 interval=0.25 mult = (file=../../../../../profiles/res_kw_1223_pu.csv) qmult = (file=../../../../../profiles/res_kvar_1223_pu.csv)

New Loadshape.res_kw_736_pu npts= 35040 interval=0.25 mult = (file=../../../../../profiles/res_kw_736_pu.csv) qmult = (file=../../../../../profiles/res_kvar_736_pu.csv)

New Loadshape.res_kw_101_pu npts= 35040 interval=0.25 mult = (file=../../../../../profiles/res_kw_101_pu.csv) qmult = (file=../../../../../profiles/res_kvar_101_pu.csv)

New Loadshape.res_kw_264_pu npts= 35040 interval=0.25 mult = (file=../../../../../profiles/res_kw_264_pu.csv) qmult = (file=../../../../../profiles/res_kvar_264_pu.csv)

New Loadshape.res_kw_625_pu npts= 35040 interval=0.25 mult = (file=../../../../../profiles/res_kw_625_pu.csv) qmult = (file=../../../../../profiles/res_kvar_625_pu.csv)

New Loadshape.res_kw_984_pu npts= 35040 interval=0.25 mult = (file=../../../../../profiles/res_kw_984_pu.csv) qmult = (file=../../../../../profiles/res_kvar_984_pu.csv)

New Loadshape.res_kw_207_pu npts= 35040 interval=0.25 mult = (file=../../../../../profiles/res_kw_207_pu.csv) qmult = (file=../../../../../profiles/res_kvar_207_pu.csv)

New Loadshape.res_kw_431_pu npts= 35040 interval=0.25 mult = (file=../../../../../profiles/res_kw_431_pu.csv) qmult = (file=../../../../../profiles/res_kvar_431_pu.csv)

New Loadshape.res_kw_307_pu npts= 35040 interval=0.25 mult = (file=../../../../../profiles/res_kw_307_pu.csv) qmult = (file=../../../../../profiles/res_kvar_307_pu.csv)

New Loadshape.res_kw_141_pu npts= 35040 interval=0.25 mult = (file=../../../../../profiles/res_kw_141_pu.csv) qmult = (file=../../../../../profiles/res_kvar_141_pu.csv)

New Loadshape.res_kw_1074_pu npts= 35040 interval=0.25 mult = (file=../../../../../profiles/res_kw_1074_pu.csv) qmult = (file=../../../../../profiles/res_kvar_1074_pu.csv)

New Loadshape.res_kw_396_pu npts= 35040 interval=0.25 mult = (file=../../../../../profiles/res_kw_396_pu.csv) qmult = (file=../../../../../profiles/res_kvar_396_pu.csv)

New Loadshape.res_kw_206_pu npts= 35040 interval=0.25 mult = (file=../../../../../profiles/res_kw_206_pu.csv) qmult = (file=../../../../../profiles/res_kvar_206_pu.csv)

New Loadshape.res_kw_292_pu npts= 35040 interval=0.25 mult = (file=../../../../../profiles/res_kw_292_pu.csv) qmult = (file=../../../../../profiles/res_kvar_292_pu.csv)

New Loadshape.res_kw_75_pu npts= 35040 interval=0.25 mult = (file=../../../../../profiles/res_kw_75_pu.csv) qmult = (file=../../../../../profiles/res_kvar_75_pu.csv)

New Loadshape.res_kw_1153_pu npts= 35040 interval=0.25 mult = (file=../../../../../profiles/res_kw_1153_pu.csv) qmult = (file=../../../../../profiles/res_kvar_1153_pu.csv)

New Loadshape.res_kw_203_pu npts= 35040 interval=0.25 mult = (file=../../../../../profiles/res_kw_203_pu.csv) qmult = (file=../../../../../profiles/res_kvar_203_pu.csv)

New Loadshape.res_kw_1105_pu npts= 35040 interval=0.25 mult = (file=../../../../../profiles/res_kw_1105_pu.csv) qmult = (file=../../../../../profiles/res_kvar_1105_pu.csv)

New Loadshape.res_kw_504_pu npts= 35040 interval=0.25 mult = (file=../../../../../profiles/res_kw_504_pu.csv) qmult = (file=../../../../../profiles/res_kvar_504_pu.csv)

New Loadshape.res_kw_272_pu npts= 35040 interval=0.25 mult = (file=../../../../../profiles/res_kw_272_pu.csv) qmult = (file=../../../../../profiles/res_kvar_272_pu.csv)

New Loadshape.res_kw_931_pu npts= 35040 interval=0.25 mult = (file=../../../../../profiles/res_kw_931_pu.csv) qmult = (file=../../../../../profiles/res_kvar_931_pu.csv)

New Loadshape.res_kw_748_pu npts= 35040 interval=0.25 mult = (file=../../../../../profiles/res_kw_748_pu.csv) qmult = (file=../../../../../profiles/res_kvar_748_pu.csv)

New Loadshape.res_kw_822_pu npts= 35040 interval=0.25 mult = (file=../../../../../profiles/res_kw_822_pu.csv) qmult = (file=../../../../../profiles/res_kvar_822_pu.csv)

New Loadshape.res_kw_1070_pu npts= 35040 interval=0.25 mult = (file=../../../../../profiles/res_kw_1070_pu.csv) qmult = (file=../../../../../profiles/res_kvar_1070_pu.csv)

New Loadshape.res_kw_1023_pu npts= 35040 interval=0.25 mult = (file=../../../../../profiles/res_kw_1023_pu.csv) qmult = (file=../../../../../profiles/res_kvar_1023_pu.csv)

New Loadshape.res_kw_182_pu npts= 35040 interval=0.25 mult = (file=../../../../../profiles/res_kw_182_pu.csv) qmult = (file=../../../../../profiles/res_kvar_182_pu.csv)

New Loadshape.res_kw_844_pu npts= 35040 interval=0.25 mult = (file=../../../../../profiles/res_kw_844_pu.csv) qmult = (file=../../../../../profiles/res_kvar_844_pu.csv)

New Loadshape.res_kw_568_pu npts= 35040 interval=0.25 mult = (file=../../../../../profiles/res_kw_568_pu.csv) qmult = (file=../../../../../profiles/res_kvar_568_pu.csv)

New Loadshape.res_kw_1159_pu npts= 35040 interval=0.25 mult = (file=../../../../../profiles/res_kw_1159_pu.csv) qmult = (file=../../../../../profiles/res_kvar_1159_pu.csv)

New Loadshape.res_kw_1083_pu npts= 35040 interval=0.25 mult = (file=../../../../../profiles/res_kw_1083_pu.csv) qmult = (file=../../../../../profiles/res_kvar_1083_pu.csv)

New Loadshape.res_kw_655_pu npts= 35040 interval=0.25 mult = (file=../../../../../profiles/res_kw_655_pu.csv) qmult = (file=../../../../../profiles/res_kvar_655_pu.csv)

New Loadshape.res_kw_162_pu npts= 35040 interval=0.25 mult = (file=../../../../../profiles/res_kw_162_pu.csv) qmult = (file=../../../../../profiles/res_kvar_162_pu.csv)

New Loadshape.res_kw_652_pu npts= 35040 interval=0.25 mult = (file=../../../../../profiles/res_kw_652_pu.csv) qmult = (file=../../../../../profiles/res_kvar_652_pu.csv)

New Loadshape.res_kw_847_pu npts= 35040 interval=0.25 mult = (file=../../../../../profiles/res_kw_847_pu.csv) qmult = (file=../../../../../profiles/res_kvar_847_pu.csv)

New Loadshape.res_kw_263_pu npts= 35040 interval=0.25 mult = (file=../../../../../profiles/res_kw_263_pu.csv) qmult = (file=../../../../../profiles/res_kvar_263_pu.csv)

New Loadshape.res_kw_898_pu npts= 35040 interval=0.25 mult = (file=../../../../../profiles/res_kw_898_pu.csv) qmult = (file=../../../../../profiles/res_kvar_898_pu.csv)

New Loadshape.res_kw_968_pu npts= 35040 interval=0.25 mult = (file=../../../../../profiles/res_kw_968_pu.csv) qmult = (file=../../../../../profiles/res_kvar_968_pu.csv)

New Loadshape.res_kw_692_pu npts= 35040 interval=0.25 mult = (file=../../../../../profiles/res_kw_692_pu.csv) qmult = (file=../../../../../profiles/res_kvar_692_pu.csv)

New Loadshape.res_kw_112_pu npts= 35040 interval=0.25 mult = (file=../../../../../profiles/res_kw_112_pu.csv) qmult = (file=../../../../../profiles/res_kvar_112_pu.csv)

New Loadshape.res_kw_282_pu npts= 35040 interval=0.25 mult = (file=../../../../../profiles/res_kw_282_pu.csv) qmult = (file=../../../../../profiles/res_kvar_282_pu.csv)

New Loadshape.res_kw_90_pu npts= 35040 interval=0.25 mult = (file=../../../../../profiles/res_kw_90_pu.csv) qmult = (file=../../../../../profiles/res_kvar_90_pu.csv)

New Loadshape.res_kw_945_pu npts= 35040 interval=0.25 mult = (file=../../../../../profiles/res_kw_945_pu.csv) qmult = (file=../../../../../profiles/res_kvar_945_pu.csv)

New Loadshape.res_kw_142_pu npts= 35040 interval=0.25 mult = (file=../../../../../profiles/res_kw_142_pu.csv) qmult = (file=../../../../../profiles/res_kvar_142_pu.csv)

New Loadshape.res_kw_560_pu npts= 35040 interval=0.25 mult = (file=../../../../../profiles/res_kw_560_pu.csv) qmult = (file=../../../../../profiles/res_kvar_560_pu.csv)

New Loadshape.res_kw_1078_pu npts= 35040 interval=0.25 mult = (file=../../../../../profiles/res_kw_1078_pu.csv) qmult = (file=../../../../../profiles/res_kvar_1078_pu.csv)

New Loadshape.res_kw_887_pu npts= 35040 interval=0.25 mult = (file=../../../../../profiles/res_kw_887_pu.csv) qmult = (file=../../../../../profiles/res_kvar_887_pu.csv)

New Loadshape.res_kw_267_pu npts= 35040 interval=0.25 mult = (file=../../../../../profiles/res_kw_267_pu.csv) qmult = (file=../../../../../profiles/res_kvar_267_pu.csv)

New Loadshape.res_kw_305_pu npts= 35040 interval=0.25 mult = (file=../../../../../profiles/res_kw_305_pu.csv) qmult = (file=../../../../../profiles/res_kvar_305_pu.csv)

New Loadshape.res_kw_1106_pu npts= 35040 interval=0.25 mult = (file=../../../../../profiles/res_kw_1106_pu.csv) qmult = (file=../../../../../profiles/res_kvar_1106_pu.csv)

New Loadshape.res_kw_452_pu npts= 35040 interval=0.25 mult = (file=../../../../../profiles/res_kw_452_pu.csv) qmult = (file=../../../../../profiles/res_kvar_452_pu.csv)

New Loadshape.res_kw_775_pu npts= 35040 interval=0.25 mult = (file=../../../../../profiles/res_kw_775_pu.csv) qmult = (file=../../../../../profiles/res_kvar_775_pu.csv)

New Loadshape.res_kw_39_pu npts= 35040 interval=0.25 mult = (file=../../../../../profiles/res_kw_39_pu.csv) qmult = (file=../../../../../profiles/res_kvar_39_pu.csv)

New Loadshape.res_kw_325_pu npts= 35040 interval=0.25 mult = (file=../../../../../profiles/res_kw_325_pu.csv) qmult = (file=../../../../../profiles/res_kvar_325_pu.csv)

New Loadshape.res_kw_819_pu npts= 35040 interval=0.25 mult = (file=../../../../../profiles/res_kw_819_pu.csv) qmult = (file=../../../../../profiles/res_kvar_819_pu.csv)

New Loadshape.res_kw_1277_pu npts= 35040 interval=0.25 mult = (file=../../../../../profiles/res_kw_1277_pu.csv) qmult = (file=../../../../../profiles/res_kvar_1277_pu.csv)

New Loadshape.res_kw_798_pu npts= 35040 interval=0.25 mult = (file=../../../../../profiles/res_kw_798_pu.csv) qmult = (file=../../../../../profiles/res_kvar_798_pu.csv)

New Loadshape.res_kw_1283_pu npts= 35040 interval=0.25 mult = (file=../../../../../profiles/res_kw_1283_pu.csv) qmult = (file=../../../../../profiles/res_kvar_1283_pu.csv)

New Loadshape.res_kw_1270_pu npts= 35040 interval=0.25 mult = (file=../../../../../profiles/res_kw_1270_pu.csv) qmult = (file=../../../../../profiles/res_kvar_1270_pu.csv)

New Loadshape.res_kw_606_pu npts= 35040 interval=0.25 mult = (file=../../../../../profiles/res_kw_606_pu.csv) qmult = (file=../../../../../profiles/res_kvar_606_pu.csv)

New Loadshape.res_kw_549_pu npts= 35040 interval=0.25 mult = (file=../../../../../profiles/res_kw_549_pu.csv) qmult = (file=../../../../../profiles/res_kvar_549_pu.csv)

New Loadshape.res_kw_488_pu npts= 35040 interval=0.25 mult = (file=../../../../../profiles/res_kw_488_pu.csv) qmult = (file=../../../../../profiles/res_kvar_488_pu.csv)

New Loadshape.res_kw_664_pu npts= 35040 interval=0.25 mult = (file=../../../../../profiles/res_kw_664_pu.csv) qmult = (file=../../../../../profiles/res_kvar_664_pu.csv)

New Loadshape.res_kw_501_pu npts= 35040 interval=0.25 mult = (file=../../../../../profiles/res_kw_501_pu.csv) qmult = (file=../../../../../profiles/res_kvar_501_pu.csv)

New Loadshape.res_kw_217_pu npts= 35040 interval=0.25 mult = (file=../../../../../profiles/res_kw_217_pu.csv) qmult = (file=../../../../../profiles/res_kvar_217_pu.csv)

New Loadshape.res_kw_239_pu npts= 35040 interval=0.25 mult = (file=../../../../../profiles/res_kw_239_pu.csv) qmult = (file=../../../../../profiles/res_kvar_239_pu.csv)
