New Load.load_p1ulv401_1 conn=wye bus1=p1ulv401.1 kV=0.12 Vminpu=0.8 Vmaxpu=1.2 model=1 kW=2.4402285312138985 kvar=0.9342273883677934 Phases=1 yearly=res_kw_409_pu

New Load.load_p1ulv401_2 conn=wye bus1=p1ulv401.2 kV=0.12 Vminpu=0.8 Vmaxpu=1.2 model=1 kW=2.4402285312138985 kvar=0.9342273883677934 Phases=1 yearly=res_kw_409_pu

New Load.load_p1ulv402_1 conn=wye bus1=p1ulv402.1 kV=0.12 Vminpu=0.8 Vmaxpu=1.2 model=1 kW=11.457721527492426 kvar=1.3801854390555242 Phases=1 yearly=res_kw_861_pu

New Load.load_p1ulv402_2 conn=wye bus1=p1ulv402.2 kV=0.12 Vminpu=0.8 Vmaxpu=1.2 model=1 kW=11.457721527492426 kvar=1.3801854390555242 Phases=1 yearly=res_kw_861_pu

New Load.load_p1ulv403_1 conn=wye bus1=p1ulv403.1 kV=0.12 Vminpu=0.8 Vmaxpu=1.2 model=1 kW=2.605021030189827 kvar=1.0007509371876184 Phases=1 yearly=res_kw_24_pu

New Load.load_p1ulv403_2 conn=wye bus1=p1ulv403.2 kV=0.12 Vminpu=0.8 Vmaxpu=1.2 model=1 kW=2.605021030189827 kvar=1.0007509371876184 Phases=1 yearly=res_kw_24_pu

New Load.load_p1ulv404_1 conn=wye bus1=p1ulv404.1 kV=0.12 Vminpu=0.8 Vmaxpu=1.2 model=1 kW=3.4468581914223817 kvar=1.1411197390818253 Phases=1 yearly=res_kw_250_pu

New Load.load_p1ulv404_2 conn=wye bus1=p1ulv404.2 kV=0.12 Vminpu=0.8 Vmaxpu=1.2 model=1 kW=3.4468581914223817 kvar=1.1411197390818253 Phases=1 yearly=res_kw_250_pu

New Load.load_p1ulv405_1 conn=wye bus1=p1ulv405.1 kV=0.12 Vminpu=0.8 Vmaxpu=1.2 model=1 kW=5.942686091683347 kvar=1.452957393533487 Phases=1 yearly=res_kw_772_pu

New Load.load_p1ulv405_2 conn=wye bus1=p1ulv405.2 kV=0.12 Vminpu=0.8 Vmaxpu=1.2 model=1 kW=5.942686091683347 kvar=1.452957393533487 Phases=1 yearly=res_kw_772_pu

New Load.load_p1ulv406_1 conn=wye bus1=p1ulv406.1 kV=0.12 Vminpu=0.8 Vmaxpu=1.2 model=1 kW=5.4313165050257775 kvar=1.3233518473888222 Phases=1 yearly=res_kw_355_pu

New Load.load_p1ulv406_2 conn=wye bus1=p1ulv406.2 kV=0.12 Vminpu=0.8 Vmaxpu=1.2 model=1 kW=5.4313165050257775 kvar=1.3233518473888222 Phases=1 yearly=res_kw_355_pu

New Load.load_p1ulv407_1 conn=wye bus1=p1ulv407.1 kV=0.12 Vminpu=0.8 Vmaxpu=1.2 model=1 kW=5.537802781538466 kvar=1.2166043281614465 Phases=1 yearly=res_kw_208_pu

New Load.load_p1ulv407_2 conn=wye bus1=p1ulv407.2 kV=0.12 Vminpu=0.8 Vmaxpu=1.2 model=1 kW=5.537802781538466 kvar=1.2166043281614465 Phases=1 yearly=res_kw_208_pu

New Load.load_p1ulv408_1 conn=wye bus1=p1ulv408.1 kV=0.12 Vminpu=0.8 Vmaxpu=1.2 model=1 kW=3.469521951913567 kvar=0.9490620687569232 Phases=1 yearly=res_kw_825_pu

New Load.load_p1ulv408_2 conn=wye bus1=p1ulv408.2 kV=0.12 Vminpu=0.8 Vmaxpu=1.2 model=1 kW=3.469521951913567 kvar=0.9490620687569232 Phases=1 yearly=res_kw_825_pu

New Load.load_p1ulv409_1 conn=wye bus1=p1ulv409.1 kV=0.12 Vminpu=0.8 Vmaxpu=1.2 model=1 kW=2.605021030189827 kvar=1.0007509371876184 Phases=1 yearly=res_kw_24_pu

New Load.load_p1ulv409_2 conn=wye bus1=p1ulv409.2 kV=0.12 Vminpu=0.8 Vmaxpu=1.2 model=1 kW=2.605021030189827 kvar=1.0007509371876184 Phases=1 yearly=res_kw_24_pu

New Load.load_p1ulv410_1 conn=wye bus1=p1ulv410.1 kV=0.12 Vminpu=0.8 Vmaxpu=1.2 model=1 kW=6.817994061838357 kvar=0.9100697715919355 Phases=1 yearly=res_kw_1099_pu

New Load.load_p1ulv410_2 conn=wye bus1=p1ulv410.2 kV=0.12 Vminpu=0.8 Vmaxpu=1.2 model=1 kW=6.817994061838357 kvar=0.9100697715919355 Phases=1 yearly=res_kw_1099_pu

New Load.load_p1ulv411_1 conn=wye bus1=p1ulv411.1 kV=0.12 Vminpu=0.8 Vmaxpu=1.2 model=1 kW=4.788649591238137 kvar=1.023651375705972 Phases=1 yearly=res_kw_512_pu

New Load.load_p1ulv411_2 conn=wye bus1=p1ulv411.2 kV=0.12 Vminpu=0.8 Vmaxpu=1.2 model=1 kW=4.788649591238137 kvar=1.023651375705972 Phases=1 yearly=res_kw_512_pu

New Load.load_p1ulv412_1 conn=wye bus1=p1ulv412.1 kV=0.12 Vminpu=0.8 Vmaxpu=1.2 model=1 kW=5.1496269559453545 kvar=1.5323145223091108 Phases=1 yearly=com_kw_14231_pu

New Load.load_p1ulv412_2 conn=wye bus1=p1ulv412.2 kV=0.12 Vminpu=0.8 Vmaxpu=1.2 model=1 kW=5.1496269559453545 kvar=1.5323145223091108 Phases=1 yearly=com_kw_14231_pu

New Load.load_p1ulv413_1 conn=wye bus1=p1ulv413.1 kV=0.12 Vminpu=0.8 Vmaxpu=1.2 model=1 kW=13.251431311430247 kvar=0.1493407165487586 Phases=1 yearly=com_kw_14976_pu

New Load.load_p1ulv413_2 conn=wye bus1=p1ulv413.2 kV=0.12 Vminpu=0.8 Vmaxpu=1.2 model=1 kW=13.251431311430247 kvar=0.1493407165487586 Phases=1 yearly=com_kw_14976_pu

New Load.load_p1ulv414_1 conn=wye bus1=p1ulv414.1 kV=0.12 Vminpu=0.8 Vmaxpu=1.2 model=1 kW=9.358521499301396 kvar=0.9436008203397507 Phases=1 yearly=com_kw_12824_pu

New Load.load_p1ulv414_2 conn=wye bus1=p1ulv414.2 kV=0.12 Vminpu=0.8 Vmaxpu=1.2 model=1 kW=9.358521499301396 kvar=0.9436008203397507 Phases=1 yearly=com_kw_12824_pu

New Load.load_p1ulv415_1 conn=wye bus1=p1ulv415.1 kV=0.12 Vminpu=0.8 Vmaxpu=1.2 model=1 kW=2.0380250144225394 kvar=0.5847764991219453 Phases=1 yearly=com_kw_15124_pu

New Load.load_p1ulv415_2 conn=wye bus1=p1ulv415.2 kV=0.12 Vminpu=0.8 Vmaxpu=1.2 model=1 kW=2.0380250144225394 kvar=0.5847764991219453 Phases=1 yearly=com_kw_15124_pu

New Load.load_p1ulv416_1 conn=wye bus1=p1ulv416.1 kV=0.12 Vminpu=0.8 Vmaxpu=1.2 model=1 kW=1.8636614682402992 kvar=0.5015179682387616 Phases=1 yearly=res_kw_532_pu

New Load.load_p1ulv416_2 conn=wye bus1=p1ulv416.2 kV=0.12 Vminpu=0.8 Vmaxpu=1.2 model=1 kW=1.8636614682402992 kvar=0.5015179682387616 Phases=1 yearly=res_kw_532_pu

New Load.load_p1ulv417_1 conn=wye bus1=p1ulv417.1 kV=0.12 Vminpu=0.8 Vmaxpu=1.2 model=1 kW=11.506702661284509 kvar=3.22329926547824 Phases=1 yearly=res_kw_231_pu

New Load.load_p1ulv417_2 conn=wye bus1=p1ulv417.2 kV=0.12 Vminpu=0.8 Vmaxpu=1.2 model=1 kW=11.506702661284509 kvar=3.22329926547824 Phases=1 yearly=res_kw_231_pu

New Load.load_p1ulv425_1 conn=wye bus1=p1ulv425.1 kV=0.12 Vminpu=0.8 Vmaxpu=1.2 model=1 kW=3.6844020253442458 kvar=1.4451491397155931 Phases=1 yearly=res_kw_1258_pu

New Load.load_p1ulv425_2 conn=wye bus1=p1ulv425.2 kV=0.12 Vminpu=0.8 Vmaxpu=1.2 model=1 kW=3.6844020253442458 kvar=1.4451491397155931 Phases=1 yearly=res_kw_1258_pu

New Load.load_p1ulv3773_1 conn=wye bus1=p1ulv3773.1 kV=0.12 Vminpu=0.8 Vmaxpu=1.2 model=1 kW=2.0313586656693827 kvar=0.5942635047770736 Phases=1 yearly=com_kw_13386_pu

New Load.load_p1ulv3773_2 conn=wye bus1=p1ulv3773.2 kV=0.12 Vminpu=0.8 Vmaxpu=1.2 model=1 kW=2.0313586656693827 kvar=0.5942635047770736 Phases=1 yearly=com_kw_13386_pu

New Load.load_p1ulv3774_1 conn=wye bus1=p1ulv3773.1 kV=0.12 Vminpu=0.8 Vmaxpu=1.2 model=1 kW=6.215760550825127 kvar=0.1559871213980079 Phases=1 yearly=com_kw_13807_pu

New Load.load_p1ulv3774_2 conn=wye bus1=p1ulv3773.2 kV=0.12 Vminpu=0.8 Vmaxpu=1.2 model=1 kW=6.215760550825127 kvar=0.1559871213980079 Phases=1 yearly=com_kw_13807_pu

New Load.load_p1ulv3775_1 conn=wye bus1=p1ulv3775.1 kV=0.12 Vminpu=0.8 Vmaxpu=1.2 model=1 kW=5.2342602505249465 kvar=0.03192958905801793 Phases=1 yearly=com_kw_13109_pu

New Load.load_p1ulv3775_2 conn=wye bus1=p1ulv3775.2 kV=0.12 Vminpu=0.8 Vmaxpu=1.2 model=1 kW=5.2342602505249465 kvar=0.03192958905801793 Phases=1 yearly=com_kw_13109_pu

New Load.load_p1ulv3776_1 conn=wye bus1=p1ulv3775.1 kV=0.12 Vminpu=0.8 Vmaxpu=1.2 model=1 kW=2.0380250144225394 kvar=0.5847764991219453 Phases=1 yearly=com_kw_15124_pu

New Load.load_p1ulv3776_2 conn=wye bus1=p1ulv3775.2 kV=0.12 Vminpu=0.8 Vmaxpu=1.2 model=1 kW=2.0380250144225394 kvar=0.5847764991219453 Phases=1 yearly=com_kw_15124_pu

New Load.load_p1ulv3777_1 conn=wye bus1=p1ulv3777.1 kV=0.12 Vminpu=0.8 Vmaxpu=1.2 model=1 kW=2.1271986187473146 kvar=0.5751959086648131 Phases=1 yearly=com_kw_14402_pu

New Load.load_p1ulv3777_2 conn=wye bus1=p1ulv3777.2 kV=0.12 Vminpu=0.8 Vmaxpu=1.2 model=1 kW=2.1271986187473146 kvar=0.5751959086648131 Phases=1 yearly=com_kw_14402_pu

New Load.load_p1ulv3778_1 conn=wye bus1=p1ulv3777.1 kV=0.12 Vminpu=0.8 Vmaxpu=1.2 model=1 kW=4.941260915673429 kvar=0.2872704608510125 Phases=1 yearly=com_kw_15212_pu

New Load.load_p1ulv3778_2 conn=wye bus1=p1ulv3777.2 kV=0.12 Vminpu=0.8 Vmaxpu=1.2 model=1 kW=4.941260915673429 kvar=0.2872704608510125 Phases=1 yearly=com_kw_15212_pu

New Load.load_p1ulv3779_1 conn=wye bus1=p1ulv3779.1 kV=0.12 Vminpu=0.8 Vmaxpu=1.2 model=1 kW=7.93049382572733 kvar=0.16129015048142953 Phases=1 yearly=com_kw_14549_pu

New Load.load_p1ulv3779_2 conn=wye bus1=p1ulv3779.2 kV=0.12 Vminpu=0.8 Vmaxpu=1.2 model=1 kW=7.93049382572733 kvar=0.16129015048142953 Phases=1 yearly=com_kw_14549_pu

New Load.load_p1ulv3780_1 conn=wye bus1=p1ulv3779.1 kV=0.12 Vminpu=0.8 Vmaxpu=1.2 model=1 kW=1.8914832317680952 kvar=0.4701288429802831 Phases=1 yearly=com_kw_13018_pu

New Load.load_p1ulv3780_2 conn=wye bus1=p1ulv3779.2 kV=0.12 Vminpu=0.8 Vmaxpu=1.2 model=1 kW=1.8914832317680952 kvar=0.4701288429802831 Phases=1 yearly=com_kw_13018_pu

New Load.load_p1ulv3781_1 conn=wye bus1=p1ulv3781.1 kV=0.12 Vminpu=0.8 Vmaxpu=1.2 model=1 kW=1.8914832317680952 kvar=0.4701288429802831 Phases=1 yearly=com_kw_13018_pu

New Load.load_p1ulv3781_2 conn=wye bus1=p1ulv3781.2 kV=0.12 Vminpu=0.8 Vmaxpu=1.2 model=1 kW=1.8914832317680952 kvar=0.4701288429802831 Phases=1 yearly=com_kw_13018_pu

New Load.load_p1ulv3782_1 conn=wye bus1=p1ulv3784.1 kV=0.12 Vminpu=0.8 Vmaxpu=1.2 model=1 kW=5.096065176353652 kvar=0.20326988307277757 Phases=1 yearly=com_kw_14723_pu

New Load.load_p1ulv3782_2 conn=wye bus1=p1ulv3784.2 kV=0.12 Vminpu=0.8 Vmaxpu=1.2 model=1 kW=5.096065176353652 kvar=0.20326988307277757 Phases=1 yearly=com_kw_14723_pu

New Load.load_p1ulv3783_1 conn=wye bus1=p1ulv3784.1 kV=0.12 Vminpu=0.8 Vmaxpu=1.2 model=1 kW=5.2700301388011015 kvar=0.34790018828686164 Phases=1 yearly=com_kw_13502_pu

New Load.load_p1ulv3783_2 conn=wye bus1=p1ulv3784.2 kV=0.12 Vminpu=0.8 Vmaxpu=1.2 model=1 kW=5.2700301388011015 kvar=0.34790018828686164 Phases=1 yearly=com_kw_13502_pu

New Load.load_p1ulv3784_1 conn=wye bus1=p1ulv3784.1 kV=0.12 Vminpu=0.8 Vmaxpu=1.2 model=1 kW=1.8775078991445364 kvar=0.511706884096551 Phases=1 yearly=com_kw_14932_pu

New Load.load_p1ulv3784_2 conn=wye bus1=p1ulv3784.2 kV=0.12 Vminpu=0.8 Vmaxpu=1.2 model=1 kW=1.8775078991445364 kvar=0.511706884096551 Phases=1 yearly=com_kw_14932_pu

New Load.load_p1ulv3785_1 conn=wye bus1=p1ulv3785.1 kV=0.12 Vminpu=0.8 Vmaxpu=1.2 model=1 kW=2.134373343667251 kvar=0.5986590434975299 Phases=1 yearly=com_kw_14612_pu

New Load.load_p1ulv3785_2 conn=wye bus1=p1ulv3785.2 kV=0.12 Vminpu=0.8 Vmaxpu=1.2 model=1 kW=2.134373343667251 kvar=0.5986590434975299 Phases=1 yearly=com_kw_14612_pu

New Load.load_p1ulv3786_1 conn=wye bus1=p1ulv3786.1 kV=0.12 Vminpu=0.8 Vmaxpu=1.2 model=1 kW=5.073052946727468 kvar=0.334720435390571 Phases=1 yearly=com_kw_14872_pu

New Load.load_p1ulv3786_2 conn=wye bus1=p1ulv3786.2 kV=0.12 Vminpu=0.8 Vmaxpu=1.2 model=1 kW=5.073052946727468 kvar=0.334720435390571 Phases=1 yearly=com_kw_14872_pu

New Load.load_p1ulv3787_1 conn=wye bus1=p1ulv3786.1 kV=0.12 Vminpu=0.8 Vmaxpu=1.2 model=1 kW=5.2700301388011015 kvar=0.34790018828686164 Phases=1 yearly=com_kw_13502_pu

New Load.load_p1ulv3787_2 conn=wye bus1=p1ulv3786.2 kV=0.12 Vminpu=0.8 Vmaxpu=1.2 model=1 kW=5.2700301388011015 kvar=0.34790018828686164 Phases=1 yearly=com_kw_13502_pu

New Load.load_p1ulv3788_1 conn=wye bus1=p1ulv3788.1 kV=0.12 Vminpu=0.8 Vmaxpu=1.2 model=1 kW=1.8801200674575587 kvar=0.53962653273889 Phases=1 yearly=com_kw_13578_pu

New Load.load_p1ulv3788_2 conn=wye bus1=p1ulv3788.2 kV=0.12 Vminpu=0.8 Vmaxpu=1.2 model=1 kW=1.8801200674575587 kvar=0.53962653273889 Phases=1 yearly=com_kw_13578_pu

New Load.load_p1ulv3789_1 conn=wye bus1=p1ulv3789.1 kV=0.12 Vminpu=0.8 Vmaxpu=1.2 model=1 kW=1.8914832317680952 kvar=0.4701288429802831 Phases=1 yearly=com_kw_13018_pu

New Load.load_p1ulv3789_2 conn=wye bus1=p1ulv3789.2 kV=0.12 Vminpu=0.8 Vmaxpu=1.2 model=1 kW=1.8914832317680952 kvar=0.4701288429802831 Phases=1 yearly=com_kw_13018_pu

New Load.load_p1ulv3790 conn=wye bus1=p1ulv3790.1.2.3 kV=0.48 Vminpu=0.8 Vmaxpu=1.2 model=1 kW=41.27726434904335 kvar=10.826959957077602 Phases=3 yearly=com_kw_13682_pu

New Load.load_p1ulv3791_1 conn=wye bus1=p1ulv3791.1 kV=0.12 Vminpu=0.8 Vmaxpu=1.2 model=1 kW=9.358521499301396 kvar=0.9436008203397507 Phases=1 yearly=com_kw_12824_pu

New Load.load_p1ulv3791_2 conn=wye bus1=p1ulv3791.2 kV=0.12 Vminpu=0.8 Vmaxpu=1.2 model=1 kW=9.358521499301396 kvar=0.9436008203397507 Phases=1 yearly=com_kw_12824_pu

New Load.load_p1ulv3792_1 conn=wye bus1=p1ulv3792.1 kV=0.12 Vminpu=0.8 Vmaxpu=1.2 model=1 kW=9.358521499301396 kvar=0.9436008203397507 Phases=1 yearly=com_kw_12824_pu

New Load.load_p1ulv3792_2 conn=wye bus1=p1ulv3792.2 kV=0.12 Vminpu=0.8 Vmaxpu=1.2 model=1 kW=9.358521499301396 kvar=0.9436008203397507 Phases=1 yearly=com_kw_12824_pu

New Load.load_p1ulv3793_1 conn=wye bus1=p1ulv3793.1 kV=0.12 Vminpu=0.8 Vmaxpu=1.2 model=1 kW=4.081735511976485 kvar=0.9882394625849078 Phases=1 yearly=com_kw_14650_pu

New Load.load_p1ulv3793_2 conn=wye bus1=p1ulv3793.2 kV=0.12 Vminpu=0.8 Vmaxpu=1.2 model=1 kW=4.081735511976485 kvar=0.9882394625849078 Phases=1 yearly=com_kw_14650_pu

New Load.load_p1ulv3794_1 conn=wye bus1=p1ulv3794.1 kV=0.12 Vminpu=0.8 Vmaxpu=1.2 model=1 kW=5.1496269559453545 kvar=1.5323145223091108 Phases=1 yearly=com_kw_14231_pu

New Load.load_p1ulv3794_2 conn=wye bus1=p1ulv3794.2 kV=0.12 Vminpu=0.8 Vmaxpu=1.2 model=1 kW=5.1496269559453545 kvar=1.5323145223091108 Phases=1 yearly=com_kw_14231_pu

New Load.load_p1ulv3795_1 conn=wye bus1=p1ulv3795.1 kV=0.12 Vminpu=0.8 Vmaxpu=1.2 model=1 kW=6.847378896370207 kvar=0.2857422414791666 Phases=1 yearly=com_kw_14382_pu

New Load.load_p1ulv3795_2 conn=wye bus1=p1ulv3795.2 kV=0.12 Vminpu=0.8 Vmaxpu=1.2 model=1 kW=6.847378896370207 kvar=0.2857422414791666 Phases=1 yearly=com_kw_14382_pu

New Load.load_p1ulv3796_1 conn=wye bus1=p1ulv3795.1 kV=0.12 Vminpu=0.8 Vmaxpu=1.2 model=1 kW=3.146048361674957 kvar=1.0127233043446469 Phases=1 yearly=com_kw_14498_pu

New Load.load_p1ulv3796_2 conn=wye bus1=p1ulv3795.2 kV=0.12 Vminpu=0.8 Vmaxpu=1.2 model=1 kW=3.146048361674957 kvar=1.0127233043446469 Phases=1 yearly=com_kw_14498_pu

New Load.load_p1ulv3797 conn=wye bus1=p1ulv3797.1.2.3 kV=0.48 Vminpu=0.8 Vmaxpu=1.2 model=1 kW=35.575751352084666 kvar=8.679058106481836 Phases=3 yearly=com_kw_13354_pu

New Load.load_p1ulv3798 conn=wye bus1=p1ulv3798.1.2.3 kV=0.48 Vminpu=0.8 Vmaxpu=1.2 model=1 kW=29.06847666053555 kvar=5.848529560450256 Phases=3 yearly=com_kw_14619_pu

New Load.load_p1ulv3799_1 conn=wye bus1=p1ulv3799.1 kV=0.12 Vminpu=0.8 Vmaxpu=1.2 model=1 kW=13.251431311430247 kvar=0.1493407165487586 Phases=1 yearly=com_kw_14976_pu

New Load.load_p1ulv3799_2 conn=wye bus1=p1ulv3799.2 kV=0.12 Vminpu=0.8 Vmaxpu=1.2 model=1 kW=13.251431311430247 kvar=0.1493407165487586 Phases=1 yearly=com_kw_14976_pu

New Load.load_p1ulv3800_1 conn=wye bus1=p1ulv3799.1 kV=0.12 Vminpu=0.8 Vmaxpu=1.2 model=1 kW=5.777968789114468 kvar=0.5425823089827511 Phases=1 yearly=com_kw_15253_pu

New Load.load_p1ulv3800_2 conn=wye bus1=p1ulv3799.2 kV=0.12 Vminpu=0.8 Vmaxpu=1.2 model=1 kW=5.777968789114468 kvar=0.5425823089827511 Phases=1 yearly=com_kw_15253_pu

New Load.load_p1ulv3806_1 conn=wye bus1=p1ulv3806.1 kV=0.12 Vminpu=0.8 Vmaxpu=1.2 model=1 kW=13.251431311430247 kvar=0.1493407165487586 Phases=1 yearly=com_kw_14976_pu

New Load.load_p1ulv3806_2 conn=wye bus1=p1ulv3806.2 kV=0.12 Vminpu=0.8 Vmaxpu=1.2 model=1 kW=13.251431311430247 kvar=0.1493407165487586 Phases=1 yearly=com_kw_14976_pu

New Load.load_p1ulv3807_1 conn=wye bus1=p1ulv3807.1 kV=0.12 Vminpu=0.8 Vmaxpu=1.2 model=1 kW=5.1496269559453545 kvar=1.5323145223091108 Phases=1 yearly=com_kw_14231_pu

New Load.load_p1ulv3807_2 conn=wye bus1=p1ulv3807.2 kV=0.12 Vminpu=0.8 Vmaxpu=1.2 model=1 kW=5.1496269559453545 kvar=1.5323145223091108 Phases=1 yearly=com_kw_14231_pu

New Load.load_p1ulv4331_1 conn=wye bus1=p1ulv4331.1 kV=0.12 Vminpu=0.8 Vmaxpu=1.2 model=1 kW=7.7578735794910925 kvar=1.9049941012910125 Phases=1 yearly=res_kw_863_pu

New Load.load_p1ulv4331_2 conn=wye bus1=p1ulv4331.2 kV=0.12 Vminpu=0.8 Vmaxpu=1.2 model=1 kW=7.7578735794910925 kvar=1.9049941012910125 Phases=1 yearly=res_kw_863_pu

New Load.load_p1ulv4332_1 conn=wye bus1=p1ulv4332.1 kV=0.12 Vminpu=0.8 Vmaxpu=1.2 model=1 kW=3.469755020859998 kvar=0.8941520384931253 Phases=1 yearly=res_kw_4_pu

New Load.load_p1ulv4332_2 conn=wye bus1=p1ulv4332.2 kV=0.12 Vminpu=0.8 Vmaxpu=1.2 model=1 kW=3.469755020859998 kvar=0.8941520384931253 Phases=1 yearly=res_kw_4_pu

New Load.load_p1ulv4334_1 conn=wye bus1=p1ulv4334.1 kV=0.12 Vminpu=0.8 Vmaxpu=1.2 model=1 kW=5.121080771859233 kvar=1.1807848049623457 Phases=1 yearly=res_kw_691_pu

New Load.load_p1ulv4334_2 conn=wye bus1=p1ulv4334.2 kV=0.12 Vminpu=0.8 Vmaxpu=1.2 model=1 kW=5.121080771859233 kvar=1.1807848049623457 Phases=1 yearly=res_kw_691_pu

New Load.load_p1ulv4336_1 conn=wye bus1=p1ulv4336.1 kV=0.12 Vminpu=0.8 Vmaxpu=1.2 model=1 kW=2.1376631749204993 kvar=0.6218033466021168 Phases=1 yearly=res_kw_93_pu

New Load.load_p1ulv4336_2 conn=wye bus1=p1ulv4336.2 kV=0.12 Vminpu=0.8 Vmaxpu=1.2 model=1 kW=2.1376631749204993 kvar=0.6218033466021168 Phases=1 yearly=res_kw_93_pu

New Load.load_p1ulv4337_1 conn=wye bus1=p1ulv4337.1 kV=0.12 Vminpu=0.8 Vmaxpu=1.2 model=1 kW=4.616693376528782 kvar=1.2150674100412684 Phases=1 yearly=res_kw_197_pu

New Load.load_p1ulv4337_2 conn=wye bus1=p1ulv4337.2 kV=0.12 Vminpu=0.8 Vmaxpu=1.2 model=1 kW=4.616693376528782 kvar=1.2150674100412684 Phases=1 yearly=res_kw_197_pu

New Load.load_p1ulv4750_1 conn=wye bus1=p1ulv4750.1 kV=0.12 Vminpu=0.8 Vmaxpu=1.2 model=1 kW=2.290290333423244 kvar=0.6734319095477642 Phases=1 yearly=com_kw_13833_pu

New Load.load_p1ulv4750_2 conn=wye bus1=p1ulv4750.2 kV=0.12 Vminpu=0.8 Vmaxpu=1.2 model=1 kW=2.290290333423244 kvar=0.6734319095477642 Phases=1 yearly=com_kw_13833_pu

New Load.load_p1ulv6483_1 conn=wye bus1=p1ulv6483.1 kV=0.12 Vminpu=0.8 Vmaxpu=1.2 model=1 kW=7.04256695844029 kvar=1.659740351203588 Phases=1 yearly=res_kw_707_pu

New Load.load_p1ulv6483_2 conn=wye bus1=p1ulv6483.2 kV=0.12 Vminpu=0.8 Vmaxpu=1.2 model=1 kW=7.04256695844029 kvar=1.659740351203588 Phases=1 yearly=res_kw_707_pu

New Load.load_p1ulv6489_1 conn=wye bus1=p1ulv6489.1 kV=0.12 Vminpu=0.8 Vmaxpu=1.2 model=1 kW=6.484825325204597 kvar=1.6440419394084307 Phases=1 yearly=res_kw_1115_pu

New Load.load_p1ulv6489_2 conn=wye bus1=p1ulv6489.2 kV=0.12 Vminpu=0.8 Vmaxpu=1.2 model=1 kW=6.484825325204597 kvar=1.6440419394084307 Phases=1 yearly=res_kw_1115_pu

New Load.load_p1ulv6492_1 conn=wye bus1=p1ulv6492.1 kV=0.12 Vminpu=0.8 Vmaxpu=1.2 model=1 kW=6.897997484512368 kvar=1.5073573946072503 Phases=1 yearly=res_kw_40_pu

New Load.load_p1ulv6492_2 conn=wye bus1=p1ulv6492.2 kV=0.12 Vminpu=0.8 Vmaxpu=1.2 model=1 kW=6.897997484512368 kvar=1.5073573946072503 Phases=1 yearly=res_kw_40_pu

New Load.load_p1ulv6496_1 conn=wye bus1=p1ulv6496.1 kV=0.12 Vminpu=0.8 Vmaxpu=1.2 model=1 kW=9.666699253995569 kvar=2.090221480167897 Phases=1 yearly=res_kw_46_pu

New Load.load_p1ulv6496_2 conn=wye bus1=p1ulv6496.2 kV=0.12 Vminpu=0.8 Vmaxpu=1.2 model=1 kW=9.666699253995569 kvar=2.090221480167897 Phases=1 yearly=res_kw_46_pu

New Load.load_p1ulv6514 conn=wye bus1=p1ulv6514.1.2.3 kV=0.48 Vminpu=0.8 Vmaxpu=1.2 model=1 kW=51.99338843351495 kvar=2.319560551526166 Phases=3 yearly=com_kw_14574_pu

New Load.load_p1ulv11120_1 conn=wye bus1=p1ulv11120.1 kV=0.12 Vminpu=0.8 Vmaxpu=1.2 model=1 kW=13.251431311430247 kvar=0.1493407165487586 Phases=1 yearly=com_kw_14976_pu

New Load.load_p1ulv11120_2 conn=wye bus1=p1ulv11120.2 kV=0.12 Vminpu=0.8 Vmaxpu=1.2 model=1 kW=13.251431311430247 kvar=0.1493407165487586 Phases=1 yearly=com_kw_14976_pu

New Load.load_p1ulv11121_1 conn=wye bus1=p1ulv11121.1 kV=0.12 Vminpu=0.8 Vmaxpu=1.2 model=1 kW=2.0380250144225394 kvar=0.5847764991219453 Phases=1 yearly=com_kw_15124_pu

New Load.load_p1ulv11121_2 conn=wye bus1=p1ulv11121.2 kV=0.12 Vminpu=0.8 Vmaxpu=1.2 model=1 kW=2.0380250144225394 kvar=0.5847764991219453 Phases=1 yearly=com_kw_15124_pu

New Load.load_p1ulv11122_1 conn=wye bus1=p1ulv11122.1 kV=0.12 Vminpu=0.8 Vmaxpu=1.2 model=1 kW=7.259772519581312 kvar=1.3210086815250959 Phases=1 yearly=res_kw_128_pu

New Load.load_p1ulv11122_2 conn=wye bus1=p1ulv11122.2 kV=0.12 Vminpu=0.8 Vmaxpu=1.2 model=1 kW=7.259772519581312 kvar=1.3210086815250959 Phases=1 yearly=res_kw_128_pu

New Load.load_p1ulv11123_1 conn=wye bus1=p1ulv11123.1 kV=0.12 Vminpu=0.8 Vmaxpu=1.2 model=1 kW=3.4468581914223817 kvar=1.1411197390818253 Phases=1 yearly=res_kw_250_pu

New Load.load_p1ulv11123_2 conn=wye bus1=p1ulv11123.2 kV=0.12 Vminpu=0.8 Vmaxpu=1.2 model=1 kW=3.4468581914223817 kvar=1.1411197390818253 Phases=1 yearly=res_kw_250_pu

New Load.load_p1ulv11124_1 conn=wye bus1=p1ulv11124.1 kV=0.12 Vminpu=0.8 Vmaxpu=1.2 model=1 kW=4.081735511976485 kvar=0.9882394625849078 Phases=1 yearly=com_kw_14650_pu

New Load.load_p1ulv11124_2 conn=wye bus1=p1ulv11124.2 kV=0.12 Vminpu=0.8 Vmaxpu=1.2 model=1 kW=4.081735511976485 kvar=0.9882394625849078 Phases=1 yearly=com_kw_14650_pu

New Load.load_p1ulv11125_1 conn=wye bus1=p1ulv11125.1 kV=0.12 Vminpu=0.8 Vmaxpu=1.2 model=1 kW=3.3641909207712115 kvar=0.9284266244461494 Phases=1 yearly=res_kw_523_pu

New Load.load_p1ulv11125_2 conn=wye bus1=p1ulv11125.2 kV=0.12 Vminpu=0.8 Vmaxpu=1.2 model=1 kW=3.3641909207712115 kvar=0.9284266244461494 Phases=1 yearly=res_kw_523_pu

New Load.load_p1ulv15880_1 conn=wye bus1=p1ulv15880.1 kV=0.12 Vminpu=0.8 Vmaxpu=1.2 model=1 kW=9.666699253995569 kvar=2.090221480167897 Phases=1 yearly=res_kw_46_pu

New Load.load_p1ulv15880_2 conn=wye bus1=p1ulv15880.2 kV=0.12 Vminpu=0.8 Vmaxpu=1.2 model=1 kW=9.666699253995569 kvar=2.090221480167897 Phases=1 yearly=res_kw_46_pu

New Load.load_p1ulv15881_1 conn=wye bus1=p1ulv15881.1 kV=0.12 Vminpu=0.8 Vmaxpu=1.2 model=1 kW=4.788649591238137 kvar=1.023651375705972 Phases=1 yearly=res_kw_512_pu

New Load.load_p1ulv15881_2 conn=wye bus1=p1ulv15881.2 kV=0.12 Vminpu=0.8 Vmaxpu=1.2 model=1 kW=4.788649591238137 kvar=1.023651375705972 Phases=1 yearly=res_kw_512_pu

New Load.load_p1ulv15883_1 conn=wye bus1=p1ulv15883.1 kV=0.12 Vminpu=0.8 Vmaxpu=1.2 model=1 kW=4.666080754031652 kvar=0.9704814918535188 Phases=1 yearly=res_kw_280_pu

New Load.load_p1ulv15883_2 conn=wye bus1=p1ulv15883.2 kV=0.12 Vminpu=0.8 Vmaxpu=1.2 model=1 kW=4.666080754031652 kvar=0.9704814918535188 Phases=1 yearly=res_kw_280_pu

New Load.load_p1ulv15884_1 conn=wye bus1=p1ulv15884.1 kV=0.12 Vminpu=0.8 Vmaxpu=1.2 model=1 kW=2.6241521841182514 kvar=0.8429304779950015 Phases=1 yearly=res_kw_33_pu

New Load.load_p1ulv15884_2 conn=wye bus1=p1ulv15884.2 kV=0.12 Vminpu=0.8 Vmaxpu=1.2 model=1 kW=2.6241521841182514 kvar=0.8429304779950015 Phases=1 yearly=res_kw_33_pu

New Load.load_p1ulv15885_1 conn=wye bus1=p1ulv15885.1 kV=0.12 Vminpu=0.8 Vmaxpu=1.2 model=1 kW=2.6241521841182514 kvar=0.8429304779950015 Phases=1 yearly=res_kw_33_pu

New Load.load_p1ulv15885_2 conn=wye bus1=p1ulv15885.2 kV=0.12 Vminpu=0.8 Vmaxpu=1.2 model=1 kW=2.6241521841182514 kvar=0.8429304779950015 Phases=1 yearly=res_kw_33_pu

New Load.load_p1ulv15887_1 conn=wye bus1=p1ulv15887.1 kV=0.12 Vminpu=0.8 Vmaxpu=1.2 model=1 kW=3.3701610259235064 kvar=1.065454990641787 Phases=1 yearly=res_kw_1037_pu

New Load.load_p1ulv15887_2 conn=wye bus1=p1ulv15887.2 kV=0.12 Vminpu=0.8 Vmaxpu=1.2 model=1 kW=3.3701610259235064 kvar=1.065454990641787 Phases=1 yearly=res_kw_1037_pu

New Load.load_p1ulv15888_1 conn=wye bus1=p1ulv15888.1 kV=0.12 Vminpu=0.8 Vmaxpu=1.2 model=1 kW=2.1894046505184286 kvar=0.7281040757251952 Phases=1 yearly=res_kw_1042_pu

New Load.load_p1ulv15888_2 conn=wye bus1=p1ulv15888.2 kV=0.12 Vminpu=0.8 Vmaxpu=1.2 model=1 kW=2.1894046505184286 kvar=0.7281040757251952 Phases=1 yearly=res_kw_1042_pu

New Load.load_p1ulv15895 conn=wye bus1=p1ulv15895.1.2.3 kV=0.48 Vminpu=0.8 Vmaxpu=1.2 model=1 kW=23.62766268344644 kvar=6.23118934066279 Phases=3 yearly=res_kw_196_pu

New Load.load_p1ulv15919_1 conn=wye bus1=p1ulv15919.1 kV=0.12 Vminpu=0.8 Vmaxpu=1.2 model=1 kW=3.6844020253442458 kvar=1.4451491397155931 Phases=1 yearly=res_kw_1258_pu

New Load.load_p1ulv15919_2 conn=wye bus1=p1ulv15919.2 kV=0.12 Vminpu=0.8 Vmaxpu=1.2 model=1 kW=3.6844020253442458 kvar=1.4451491397155931 Phases=1 yearly=res_kw_1258_pu

New Load.load_p1ulv15920_1 conn=wye bus1=p1ulv15920.1 kV=0.12 Vminpu=0.8 Vmaxpu=1.2 model=1 kW=4.47171304939181 kvar=1.1676103385976955 Phases=1 yearly=res_kw_627_pu

New Load.load_p1ulv15920_2 conn=wye bus1=p1ulv15920.2 kV=0.12 Vminpu=0.8 Vmaxpu=1.2 model=1 kW=4.47171304939181 kvar=1.1676103385976955 Phases=1 yearly=res_kw_627_pu

New Load.load_p1ulv15921_1 conn=wye bus1=p1ulv15921.1 kV=0.12 Vminpu=0.8 Vmaxpu=1.2 model=1 kW=3.8748715750127736 kvar=1.5614372175332516 Phases=1 yearly=res_kw_517_pu

New Load.load_p1ulv15921_2 conn=wye bus1=p1ulv15921.2 kV=0.12 Vminpu=0.8 Vmaxpu=1.2 model=1 kW=3.8748715750127736 kvar=1.5614372175332516 Phases=1 yearly=res_kw_517_pu

New Load.load_p1ulv15922_1 conn=wye bus1=p1ulv15922.1 kV=0.12 Vminpu=0.8 Vmaxpu=1.2 model=1 kW=4.889402611994926 kvar=1.0559288347164948 Phases=1 yearly=res_kw_1160_pu

New Load.load_p1ulv15922_2 conn=wye bus1=p1ulv15922.2 kV=0.12 Vminpu=0.8 Vmaxpu=1.2 model=1 kW=4.889402611994926 kvar=1.0559288347164948 Phases=1 yearly=res_kw_1160_pu

New Load.load_p1ulv15929_1 conn=wye bus1=p1ulv15929.1 kV=0.12 Vminpu=0.8 Vmaxpu=1.2 model=1 kW=3.3641909207712115 kvar=0.9284266244461494 Phases=1 yearly=res_kw_523_pu

New Load.load_p1ulv15929_2 conn=wye bus1=p1ulv15929.2 kV=0.12 Vminpu=0.8 Vmaxpu=1.2 model=1 kW=3.3641909207712115 kvar=0.9284266244461494 Phases=1 yearly=res_kw_523_pu

New Load.load_p1ulv15931_1 conn=wye bus1=p1ulv15931.1 kV=0.12 Vminpu=0.8 Vmaxpu=1.2 model=1 kW=3.469755020859998 kvar=0.8941520384931253 Phases=1 yearly=res_kw_4_pu

New Load.load_p1ulv15931_2 conn=wye bus1=p1ulv15931.2 kV=0.12 Vminpu=0.8 Vmaxpu=1.2 model=1 kW=3.469755020859998 kvar=0.8941520384931253 Phases=1 yearly=res_kw_4_pu

New Load.load_p1ulv15933_1 conn=wye bus1=p1ulv15933.1 kV=0.12 Vminpu=0.8 Vmaxpu=1.2 model=1 kW=6.897997484512368 kvar=1.5073573946072503 Phases=1 yearly=res_kw_40_pu

New Load.load_p1ulv15933_2 conn=wye bus1=p1ulv15933.2 kV=0.12 Vminpu=0.8 Vmaxpu=1.2 model=1 kW=6.897997484512368 kvar=1.5073573946072503 Phases=1 yearly=res_kw_40_pu

New Load.load_p1ulv15934_1 conn=wye bus1=p1ulv15934.1 kV=0.12 Vminpu=0.8 Vmaxpu=1.2 model=1 kW=5.5396149838334106 kvar=1.3495096504699533 Phases=1 yearly=res_kw_1273_pu

New Load.load_p1ulv15934_2 conn=wye bus1=p1ulv15934.2 kV=0.12 Vminpu=0.8 Vmaxpu=1.2 model=1 kW=5.5396149838334106 kvar=1.3495096504699533 Phases=1 yearly=res_kw_1273_pu

New Load.load_p1ulv15935_1 conn=wye bus1=p1ulv15935.1 kV=0.12 Vminpu=0.8 Vmaxpu=1.2 model=1 kW=4.78815623948431 kvar=1.2110296754961107 Phases=1 yearly=res_kw_842_pu

New Load.load_p1ulv15935_2 conn=wye bus1=p1ulv15935.2 kV=0.12 Vminpu=0.8 Vmaxpu=1.2 model=1 kW=4.78815623948431 kvar=1.2110296754961107 Phases=1 yearly=res_kw_842_pu

New Load.load_p1ulv15936_1 conn=wye bus1=p1ulv15936.1 kV=0.12 Vminpu=0.8 Vmaxpu=1.2 model=1 kW=5.077964450618387 kvar=1.0236236527709202 Phases=1 yearly=res_kw_283_pu

New Load.load_p1ulv15936_2 conn=wye bus1=p1ulv15936.2 kV=0.12 Vminpu=0.8 Vmaxpu=1.2 model=1 kW=5.077964450618387 kvar=1.0236236527709202 Phases=1 yearly=res_kw_283_pu

New Load.load_p1ulv15937_1 conn=wye bus1=p1ulv15937.1 kV=0.12 Vminpu=0.8 Vmaxpu=1.2 model=1 kW=4.78815623948431 kvar=1.2110296754961107 Phases=1 yearly=res_kw_842_pu

New Load.load_p1ulv15937_2 conn=wye bus1=p1ulv15937.2 kV=0.12 Vminpu=0.8 Vmaxpu=1.2 model=1 kW=4.78815623948431 kvar=1.2110296754961107 Phases=1 yearly=res_kw_842_pu

New Load.load_p1ulv15939_1 conn=wye bus1=p1ulv15939.1 kV=0.12 Vminpu=0.8 Vmaxpu=1.2 model=1 kW=2.4402285312138985 kvar=0.9342273883677934 Phases=1 yearly=res_kw_409_pu

New Load.load_p1ulv15939_2 conn=wye bus1=p1ulv15939.2 kV=0.12 Vminpu=0.8 Vmaxpu=1.2 model=1 kW=2.4402285312138985 kvar=0.9342273883677934 Phases=1 yearly=res_kw_409_pu

New Load.load_p1ulv15941_1 conn=wye bus1=p1ulv15941.1 kV=0.12 Vminpu=0.8 Vmaxpu=1.2 model=1 kW=3.308494316062581 kvar=0.7969773391329138 Phases=1 yearly=res_kw_626_pu

New Load.load_p1ulv15941_2 conn=wye bus1=p1ulv15941.2 kV=0.12 Vminpu=0.8 Vmaxpu=1.2 model=1 kW=3.308494316062581 kvar=0.7969773391329138 Phases=1 yearly=res_kw_626_pu

New Load.load_p1ulv15942_1 conn=wye bus1=p1ulv15942.1 kV=0.12 Vminpu=0.8 Vmaxpu=1.2 model=1 kW=6.168408370727534 kvar=1.492740670010399 Phases=1 yearly=res_kw_1162_pu

New Load.load_p1ulv15942_2 conn=wye bus1=p1ulv15942.2 kV=0.12 Vminpu=0.8 Vmaxpu=1.2 model=1 kW=6.168408370727534 kvar=1.492740670010399 Phases=1 yearly=res_kw_1162_pu

New Load.load_p1ulv15946_1 conn=wye bus1=p1ulv15946.1 kV=0.12 Vminpu=0.8 Vmaxpu=1.2 model=1 kW=2.6241521841182514 kvar=0.8429304779950015 Phases=1 yearly=res_kw_33_pu

New Load.load_p1ulv15946_2 conn=wye bus1=p1ulv15946.2 kV=0.12 Vminpu=0.8 Vmaxpu=1.2 model=1 kW=2.6241521841182514 kvar=0.8429304779950015 Phases=1 yearly=res_kw_33_pu

New Load.load_p1ulv15947_1 conn=wye bus1=p1ulv15947.1 kV=0.12 Vminpu=0.8 Vmaxpu=1.2 model=1 kW=6.139488924452324 kvar=1.0282575631325632 Phases=1 yearly=res_kw_421_pu

New Load.load_p1ulv15947_2 conn=wye bus1=p1ulv15947.2 kV=0.12 Vminpu=0.8 Vmaxpu=1.2 model=1 kW=6.139488924452324 kvar=1.0282575631325632 Phases=1 yearly=res_kw_421_pu

New Load.load_p1ulv15948_1 conn=wye bus1=p1ulv15948.1 kV=0.12 Vminpu=0.8 Vmaxpu=1.2 model=1 kW=3.469755020859998 kvar=0.8941520384931253 Phases=1 yearly=res_kw_4_pu

New Load.load_p1ulv15948_2 conn=wye bus1=p1ulv15948.2 kV=0.12 Vminpu=0.8 Vmaxpu=1.2 model=1 kW=3.469755020859998 kvar=0.8941520384931253 Phases=1 yearly=res_kw_4_pu

New Load.load_p1ulv16472 conn=wye bus1=p1ulv16472.1.2.3 kV=0.48 Vminpu=0.8 Vmaxpu=1.2 model=1 kW=34.95025902709327 kvar=12.584382652547053 Phases=3 yearly=com_kw_14942_pu

New Load.load_p1ulv19235_1 conn=wye bus1=p1ulv19235.1 kV=0.12 Vminpu=0.8 Vmaxpu=1.2 model=1 kW=7.822728130248291 kvar=1.6775068076507105 Phases=1 yearly=com_kw_13135_pu

New Load.load_p1ulv19235_2 conn=wye bus1=p1ulv19235.2 kV=0.12 Vminpu=0.8 Vmaxpu=1.2 model=1 kW=7.822728130248291 kvar=1.6775068076507105 Phases=1 yearly=com_kw_13135_pu

New Load.load_p1ulv19236 conn=wye bus1=p1ulv19236.1.2.3 kV=0.48 Vminpu=0.8 Vmaxpu=1.2 model=1 kW=36.50723669611415 kvar=5.711557870450742 Phases=3 yearly=com_kw_14802_pu
