New Loadshape.GSO_36.0721_-79.9153_55_135 npts= 35040 interval=0.25 mult = (file=../../../../../profiles/GSO_36.0721_-79.9153_55_135.csv)

New Loadshape.GSO_36.0721_-79.9153_25_90 npts= 35040 interval=0.25 mult = (file=../../../../../profiles/GSO_36.0721_-79.9153_25_90.csv)

New Loadshape.GSO_36.1090_-79.9153_25_225 npts= 35040 interval=0.25 mult = (file=../../../../../profiles/GSO_36.1090_-79.9153_25_225.csv)

New Loadshape.GSO_36.0721_-79.9153_35_135 npts= 35040 interval=0.25 mult = (file=../../../../../profiles/GSO_36.0721_-79.9153_35_135.csv)

New Loadshape.GSO_36.0721_-79.9153_15_135 npts= 35040 interval=0.25 mult = (file=../../../../../profiles/GSO_36.0721_-79.9153_15_135.csv)

New Loadshape.GSO_36.0721_-79.9153_15_225 npts= 35040 interval=0.25 mult = (file=../../../../../profiles/GSO_36.0721_-79.9153_15_225.csv)

New Loadshape.GSO_36.0721_-79.9153_15_180 npts= 35040 interval=0.25 mult = (file=../../../../../profiles/GSO_36.0721_-79.9153_15_180.csv)

New Loadshape.GSO_36.1090_-79.9153_15_180 npts= 35040 interval=0.25 mult = (file=../../../../../profiles/GSO_36.1090_-79.9153_15_180.csv)

New Loadshape.GSO_36.1090_-79.9153_25_90 npts= 35040 interval=0.25 mult = (file=../../../../../profiles/GSO_36.1090_-79.9153_25_90.csv)

New Loadshape.GSO_36.0721_-79.9153_25_180 npts= 35040 interval=0.25 mult = (file=../../../../../profiles/GSO_36.0721_-79.9153_25_180.csv)

New Loadshape.GSO_36.0721_-79.9153_45_90 npts= 35040 interval=0.25 mult = (file=../../../../../profiles/GSO_36.0721_-79.9153_45_90.csv)

New Loadshape.GSO_36.0721_-79.9153_25_270 npts= 35040 interval=0.25 mult = (file=../../../../../profiles/GSO_36.0721_-79.9153_25_270.csv)

New Loadshape.GSO_36.0721_-79.9153_45_180 npts= 35040 interval=0.25 mult = (file=../../../../../profiles/GSO_36.0721_-79.9153_45_180.csv)

New Loadshape.GSO_36.1090_-79.9153_25_135 npts= 35040 interval=0.25 mult = (file=../../../../../profiles/GSO_36.1090_-79.9153_25_135.csv)

New Loadshape.GSO_36.0721_-79.9153_35_270 npts= 35040 interval=0.25 mult = (file=../../../../../profiles/GSO_36.0721_-79.9153_35_270.csv)

New Loadshape.GSO_36.0721_-79.9153_55_225 npts= 35040 interval=0.25 mult = (file=../../../../../profiles/GSO_36.0721_-79.9153_55_225.csv)

New Loadshape.GSO_36.0721_-79.9153_25_225 npts= 35040 interval=0.25 mult = (file=../../../../../profiles/GSO_36.0721_-79.9153_25_225.csv)

New Loadshape.GSO_36.0721_-79.9153_55_180 npts= 35040 interval=0.25 mult = (file=../../../../../profiles/GSO_36.0721_-79.9153_55_180.csv)

New Loadshape.GSO_36.1090_-79.9153_35_270 npts= 35040 interval=0.25 mult = (file=../../../../../profiles/GSO_36.1090_-79.9153_35_270.csv)

New Loadshape.GSO_36.1090_-79.9153_15_135 npts= 35040 interval=0.25 mult = (file=../../../../../profiles/GSO_36.1090_-79.9153_15_135.csv)

New Loadshape.GSO_36.0721_-79.9153_35_225 npts= 35040 interval=0.25 mult = (file=../../../../../profiles/GSO_36.0721_-79.9153_35_225.csv)

New Loadshape.GSO_36.1090_-79.9153_35_180 npts= 35040 interval=0.25 mult = (file=../../../../../profiles/GSO_36.1090_-79.9153_35_180.csv)

New Loadshape.GSO_36.1090_-79.9153_35_90 npts= 35040 interval=0.25 mult = (file=../../../../../profiles/GSO_36.1090_-79.9153_35_90.csv)

New Loadshape.GSO_36.0721_-79.9153_25_135 npts= 35040 interval=0.25 mult = (file=../../../../../profiles/GSO_36.0721_-79.9153_25_135.csv)

New Loadshape.GSO_36.0721_-79.9153_35_180 npts= 35040 interval=0.25 mult = (file=../../../../../profiles/GSO_36.0721_-79.9153_35_180.csv)

New Loadshape.GSO_36.0721_-79.9153_15_90 npts= 35040 interval=0.25 mult = (file=../../../../../profiles/GSO_36.0721_-79.9153_15_90.csv)

New Loadshape.GSO_36.1090_-79.9153_25_180 npts= 35040 interval=0.25 mult = (file=../../../../../profiles/GSO_36.1090_-79.9153_25_180.csv)

New Loadshape.GSO_36.0721_-79.9153_45_225 npts= 35040 interval=0.25 mult = (file=../../../../../profiles/GSO_36.0721_-79.9153_45_225.csv)

New Loadshape.GSO_36.0721_-79.9153_35_90 npts= 35040 interval=0.25 mult = (file=../../../../../profiles/GSO_36.0721_-79.9153_35_90.csv)

New Loadshape.GSO_36.1090_-79.9153_45_225 npts= 35040 interval=0.25 mult = (file=../../../../../profiles/GSO_36.1090_-79.9153_45_225.csv)

New Loadshape.GSO_36.0721_-79.9153_15_270 npts= 35040 interval=0.25 mult = (file=../../../../../profiles/GSO_36.0721_-79.9153_15_270.csv)

New Loadshape.GSO_36.1090_-79.9153_15_90 npts= 35040 interval=0.25 mult = (file=../../../../../profiles/GSO_36.1090_-79.9153_15_90.csv)

New Loadshape.GSO_36.1090_-79.9153_15_225 npts= 35040 interval=0.25 mult = (file=../../../../../profiles/GSO_36.1090_-79.9153_15_225.csv)

New Loadshape.GSO_36.1090_-79.9153_35_135 npts= 35040 interval=0.25 mult = (file=../../../../../profiles/GSO_36.1090_-79.9153_35_135.csv)

New Loadshape.GSO_36.1090_-79.9153_15_270 npts= 35040 interval=0.25 mult = (file=../../../../../profiles/GSO_36.1090_-79.9153_15_270.csv)

New Loadshape.GSO_36.0721_-79.9153_45_135 npts= 35040 interval=0.25 mult = (file=../../../../../profiles/GSO_36.0721_-79.9153_45_135.csv)

New Loadshape.GSO_36.1090_-79.9153_45_135 npts= 35040 interval=0.25 mult = (file=../../../../../profiles/GSO_36.1090_-79.9153_45_135.csv)

New Loadshape.GSO_36.1090_-79.9153_45_90 npts= 35040 interval=0.25 mult = (file=../../../../../profiles/GSO_36.1090_-79.9153_45_90.csv)

New Loadshape.GSO_36.1090_-79.9153_35_225 npts= 35040 interval=0.25 mult = (file=../../../../../profiles/GSO_36.1090_-79.9153_35_225.csv)

New Loadshape.GSO_36.1090_-79.9153_45_270 npts= 35040 interval=0.25 mult = (file=../../../../../profiles/GSO_36.1090_-79.9153_45_270.csv)

New Loadshape.GSO_36.1090_-79.9153_45_180 npts= 35040 interval=0.25 mult = (file=../../../../../profiles/GSO_36.1090_-79.9153_45_180.csv)

New Loadshape.GSO_36.1090_-79.9153_25_270 npts= 35040 interval=0.25 mult = (file=../../../../../profiles/GSO_36.1090_-79.9153_25_270.csv)

New Loadshape.GSO_36.0721_-79.9153_45_270 npts= 35040 interval=0.25 mult = (file=../../../../../profiles/GSO_36.0721_-79.9153_45_270.csv)

New Loadshape.res_kw_879_pu npts= 35040 interval=0.25 mult = (file=../../../../../profiles/res_kw_879_pu.csv) qmult = (file=../../../../../profiles/res_kvar_879_pu.csv)

New Loadshape.res_kw_93_pu npts= 35040 interval=0.25 mult = (file=../../../../../profiles/res_kw_93_pu.csv) qmult = (file=../../../../../profiles/res_kvar_93_pu.csv)

New Loadshape.res_kw_199_pu npts= 35040 interval=0.25 mult = (file=../../../../../profiles/res_kw_199_pu.csv) qmult = (file=../../../../../profiles/res_kvar_199_pu.csv)

New Loadshape.res_kw_523_pu npts= 35040 interval=0.25 mult = (file=../../../../../profiles/res_kw_523_pu.csv) qmult = (file=../../../../../profiles/res_kvar_523_pu.csv)

New Loadshape.res_kw_24_pu npts= 35040 interval=0.25 mult = (file=../../../../../profiles/res_kw_24_pu.csv) qmult = (file=../../../../../profiles/res_kvar_24_pu.csv)

New Loadshape.res_kw_452_pu npts= 35040 interval=0.25 mult = (file=../../../../../profiles/res_kw_452_pu.csv) qmult = (file=../../../../../profiles/res_kvar_452_pu.csv)

New Loadshape.res_kw_141_pu npts= 35040 interval=0.25 mult = (file=../../../../../profiles/res_kw_141_pu.csv) qmult = (file=../../../../../profiles/res_kvar_141_pu.csv)

New Loadshape.res_kw_1037_pu npts= 35040 interval=0.25 mult = (file=../../../../../profiles/res_kw_1037_pu.csv) qmult = (file=../../../../../profiles/res_kvar_1037_pu.csv)

New Loadshape.res_kw_1042_pu npts= 35040 interval=0.25 mult = (file=../../../../../profiles/res_kw_1042_pu.csv) qmult = (file=../../../../../profiles/res_kvar_1042_pu.csv)

New Loadshape.res_kw_33_pu npts= 35040 interval=0.25 mult = (file=../../../../../profiles/res_kw_33_pu.csv) qmult = (file=../../../../../profiles/res_kvar_33_pu.csv)

New Loadshape.res_kw_532_pu npts= 35040 interval=0.25 mult = (file=../../../../../profiles/res_kw_532_pu.csv) qmult = (file=../../../../../profiles/res_kvar_532_pu.csv)

New Loadshape.res_kw_627_pu npts= 35040 interval=0.25 mult = (file=../../../../../profiles/res_kw_627_pu.csv) qmult = (file=../../../../../profiles/res_kvar_627_pu.csv)

New Loadshape.res_kw_842_pu npts= 35040 interval=0.25 mult = (file=../../../../../profiles/res_kw_842_pu.csv) qmult = (file=../../../../../profiles/res_kvar_842_pu.csv)

New Loadshape.res_kw_933_pu npts= 35040 interval=0.25 mult = (file=../../../../../profiles/res_kw_933_pu.csv) qmult = (file=../../../../../profiles/res_kvar_933_pu.csv)

New Loadshape.res_kw_1258_pu npts= 35040 interval=0.25 mult = (file=../../../../../profiles/res_kw_1258_pu.csv) qmult = (file=../../../../../profiles/res_kvar_1258_pu.csv)

New Loadshape.res_kw_1054_pu npts= 35040 interval=0.25 mult = (file=../../../../../profiles/res_kw_1054_pu.csv) qmult = (file=../../../../../profiles/res_kvar_1054_pu.csv)

New Loadshape.res_kw_822_pu npts= 35040 interval=0.25 mult = (file=../../../../../profiles/res_kw_822_pu.csv) qmult = (file=../../../../../profiles/res_kvar_822_pu.csv)

New Loadshape.res_kw_517_pu npts= 35040 interval=0.25 mult = (file=../../../../../profiles/res_kw_517_pu.csv) qmult = (file=../../../../../profiles/res_kvar_517_pu.csv)

New Loadshape.res_kw_843_pu npts= 35040 interval=0.25 mult = (file=../../../../../profiles/res_kw_843_pu.csv) qmult = (file=../../../../../profiles/res_kvar_843_pu.csv)

New Loadshape.res_kw_1105_pu npts= 35040 interval=0.25 mult = (file=../../../../../profiles/res_kw_1105_pu.csv) qmult = (file=../../../../../profiles/res_kvar_1105_pu.csv)

New Loadshape.res_kw_548_pu npts= 35040 interval=0.25 mult = (file=../../../../../profiles/res_kw_548_pu.csv) qmult = (file=../../../../../profiles/res_kvar_548_pu.csv)

New Loadshape.res_kw_825_pu npts= 35040 interval=0.25 mult = (file=../../../../../profiles/res_kw_825_pu.csv) qmult = (file=../../../../../profiles/res_kvar_825_pu.csv)

New Loadshape.res_kw_263_pu npts= 35040 interval=0.25 mult = (file=../../../../../profiles/res_kw_263_pu.csv) qmult = (file=../../../../../profiles/res_kvar_263_pu.csv)

New Loadshape.res_kw_1248_pu npts= 35040 interval=0.25 mult = (file=../../../../../profiles/res_kw_1248_pu.csv) qmult = (file=../../../../../profiles/res_kvar_1248_pu.csv)

New Loadshape.res_kw_1099_pu npts= 35040 interval=0.25 mult = (file=../../../../../profiles/res_kw_1099_pu.csv) qmult = (file=../../../../../profiles/res_kvar_1099_pu.csv)

New Loadshape.res_kw_97_pu npts= 35040 interval=0.25 mult = (file=../../../../../profiles/res_kw_97_pu.csv) qmult = (file=../../../../../profiles/res_kvar_97_pu.csv)

New Loadshape.res_kw_968_pu npts= 35040 interval=0.25 mult = (file=../../../../../profiles/res_kw_968_pu.csv) qmult = (file=../../../../../profiles/res_kvar_968_pu.csv)

New Loadshape.res_kw_4_pu npts= 35040 interval=0.25 mult = (file=../../../../../profiles/res_kw_4_pu.csv) qmult = (file=../../../../../profiles/res_kvar_4_pu.csv)

New Loadshape.res_kw_1194_pu npts= 35040 interval=0.25 mult = (file=../../../../../profiles/res_kw_1194_pu.csv) qmult = (file=../../../../../profiles/res_kvar_1194_pu.csv)

New Loadshape.res_kw_1205_pu npts= 35040 interval=0.25 mult = (file=../../../../../profiles/res_kw_1205_pu.csv) qmult = (file=../../../../../profiles/res_kvar_1205_pu.csv)

New Loadshape.res_kw_182_pu npts= 35040 interval=0.25 mult = (file=../../../../../profiles/res_kw_182_pu.csv) qmult = (file=../../../../../profiles/res_kvar_182_pu.csv)

New Loadshape.res_kw_470_pu npts= 35040 interval=0.25 mult = (file=../../../../../profiles/res_kw_470_pu.csv) qmult = (file=../../../../../profiles/res_kvar_470_pu.csv)

New Loadshape.res_kw_1212_pu npts= 35040 interval=0.25 mult = (file=../../../../../profiles/res_kw_1212_pu.csv) qmult = (file=../../../../../profiles/res_kvar_1212_pu.csv)

New Loadshape.res_kw_582_pu npts= 35040 interval=0.25 mult = (file=../../../../../profiles/res_kw_582_pu.csv) qmult = (file=../../../../../profiles/res_kvar_582_pu.csv)

New Loadshape.res_kw_640_pu npts= 35040 interval=0.25 mult = (file=../../../../../profiles/res_kw_640_pu.csv) qmult = (file=../../../../../profiles/res_kvar_640_pu.csv)

New Loadshape.res_kw_561_pu npts= 35040 interval=0.25 mult = (file=../../../../../profiles/res_kw_561_pu.csv) qmult = (file=../../../../../profiles/res_kvar_561_pu.csv)

New Loadshape.res_kw_267_pu npts= 35040 interval=0.25 mult = (file=../../../../../profiles/res_kw_267_pu.csv) qmult = (file=../../../../../profiles/res_kvar_267_pu.csv)

New Loadshape.res_kw_225_pu npts= 35040 interval=0.25 mult = (file=../../../../../profiles/res_kw_225_pu.csv) qmult = (file=../../../../../profiles/res_kvar_225_pu.csv)

New Loadshape.res_kw_416_pu npts= 35040 interval=0.25 mult = (file=../../../../../profiles/res_kw_416_pu.csv) qmult = (file=../../../../../profiles/res_kvar_416_pu.csv)

New Loadshape.res_kw_779_pu npts= 35040 interval=0.25 mult = (file=../../../../../profiles/res_kw_779_pu.csv) qmult = (file=../../../../../profiles/res_kvar_779_pu.csv)

New Loadshape.res_kw_46_pu npts= 35040 interval=0.25 mult = (file=../../../../../profiles/res_kw_46_pu.csv) qmult = (file=../../../../../profiles/res_kvar_46_pu.csv)

New Loadshape.res_kw_1153_pu npts= 35040 interval=0.25 mult = (file=../../../../../profiles/res_kw_1153_pu.csv) qmult = (file=../../../../../profiles/res_kvar_1153_pu.csv)

New Loadshape.res_kw_98_pu npts= 35040 interval=0.25 mult = (file=../../../../../profiles/res_kw_98_pu.csv) qmult = (file=../../../../../profiles/res_kvar_98_pu.csv)

New Loadshape.res_kw_206_pu npts= 35040 interval=0.25 mult = (file=../../../../../profiles/res_kw_206_pu.csv) qmult = (file=../../../../../profiles/res_kvar_206_pu.csv)

New Loadshape.res_kw_652_pu npts= 35040 interval=0.25 mult = (file=../../../../../profiles/res_kw_652_pu.csv) qmult = (file=../../../../../profiles/res_kvar_652_pu.csv)

New Loadshape.res_kw_707_pu npts= 35040 interval=0.25 mult = (file=../../../../../profiles/res_kw_707_pu.csv) qmult = (file=../../../../../profiles/res_kvar_707_pu.csv)

New Loadshape.res_kw_670_pu npts= 35040 interval=0.25 mult = (file=../../../../../profiles/res_kw_670_pu.csv) qmult = (file=../../../../../profiles/res_kvar_670_pu.csv)

New Loadshape.res_kw_409_pu npts= 35040 interval=0.25 mult = (file=../../../../../profiles/res_kw_409_pu.csv) qmult = (file=../../../../../profiles/res_kvar_409_pu.csv)

New Loadshape.res_kw_407_pu npts= 35040 interval=0.25 mult = (file=../../../../../profiles/res_kw_407_pu.csv) qmult = (file=../../../../../profiles/res_kvar_407_pu.csv)

New Loadshape.res_kw_549_pu npts= 35040 interval=0.25 mult = (file=../../../../../profiles/res_kw_549_pu.csv) qmult = (file=../../../../../profiles/res_kvar_549_pu.csv)

New Loadshape.res_kw_599_pu npts= 35040 interval=0.25 mult = (file=../../../../../profiles/res_kw_599_pu.csv) qmult = (file=../../../../../profiles/res_kvar_599_pu.csv)

New Loadshape.res_kw_245_pu npts= 35040 interval=0.25 mult = (file=../../../../../profiles/res_kw_245_pu.csv) qmult = (file=../../../../../profiles/res_kvar_245_pu.csv)

New Loadshape.res_kw_664_pu npts= 35040 interval=0.25 mult = (file=../../../../../profiles/res_kw_664_pu.csv) qmult = (file=../../../../../profiles/res_kvar_664_pu.csv)

New Loadshape.res_kw_560_pu npts= 35040 interval=0.25 mult = (file=../../../../../profiles/res_kw_560_pu.csv) qmult = (file=../../../../../profiles/res_kvar_560_pu.csv)

New Loadshape.res_kw_421_pu npts= 35040 interval=0.25 mult = (file=../../../../../profiles/res_kw_421_pu.csv) qmult = (file=../../../../../profiles/res_kvar_421_pu.csv)

New Loadshape.res_kw_128_pu npts= 35040 interval=0.25 mult = (file=../../../../../profiles/res_kw_128_pu.csv) qmult = (file=../../../../../profiles/res_kvar_128_pu.csv)

New Loadshape.res_kw_454_pu npts= 35040 interval=0.25 mult = (file=../../../../../profiles/res_kw_454_pu.csv) qmult = (file=../../../../../profiles/res_kvar_454_pu.csv)

New Loadshape.res_kw_861_pu npts= 35040 interval=0.25 mult = (file=../../../../../profiles/res_kw_861_pu.csv) qmult = (file=../../../../../profiles/res_kvar_861_pu.csv)

New Loadshape.res_kw_1094_pu npts= 35040 interval=0.25 mult = (file=../../../../../profiles/res_kw_1094_pu.csv) qmult = (file=../../../../../profiles/res_kvar_1094_pu.csv)

New Loadshape.res_kw_863_pu npts= 35040 interval=0.25 mult = (file=../../../../../profiles/res_kw_863_pu.csv) qmult = (file=../../../../../profiles/res_kvar_863_pu.csv)

New Loadshape.res_kw_460_pu npts= 35040 interval=0.25 mult = (file=../../../../../profiles/res_kw_460_pu.csv) qmult = (file=../../../../../profiles/res_kvar_460_pu.csv)

New Loadshape.res_kw_461_pu npts= 35040 interval=0.25 mult = (file=../../../../../profiles/res_kw_461_pu.csv) qmult = (file=../../../../../profiles/res_kvar_461_pu.csv)

New Loadshape.res_kw_906_pu npts= 35040 interval=0.25 mult = (file=../../../../../profiles/res_kw_906_pu.csv) qmult = (file=../../../../../profiles/res_kvar_906_pu.csv)

New Loadshape.res_kw_211_pu npts= 35040 interval=0.25 mult = (file=../../../../../profiles/res_kw_211_pu.csv) qmult = (file=../../../../../profiles/res_kvar_211_pu.csv)

New Loadshape.res_kw_205_pu npts= 35040 interval=0.25 mult = (file=../../../../../profiles/res_kw_205_pu.csv) qmult = (file=../../../../../profiles/res_kvar_205_pu.csv)

New Loadshape.res_kw_1220_pu npts= 35040 interval=0.25 mult = (file=../../../../../profiles/res_kw_1220_pu.csv) qmult = (file=../../../../../profiles/res_kvar_1220_pu.csv)

New Loadshape.res_kw_1159_pu npts= 35040 interval=0.25 mult = (file=../../../../../profiles/res_kw_1159_pu.csv) qmult = (file=../../../../../profiles/res_kvar_1159_pu.csv)

New Loadshape.res_kw_1223_pu npts= 35040 interval=0.25 mult = (file=../../../../../profiles/res_kw_1223_pu.csv) qmult = (file=../../../../../profiles/res_kvar_1223_pu.csv)

New Loadshape.res_kw_1276_pu npts= 35040 interval=0.25 mult = (file=../../../../../profiles/res_kw_1276_pu.csv) qmult = (file=../../../../../profiles/res_kvar_1276_pu.csv)

New Loadshape.res_kw_1149_pu npts= 35040 interval=0.25 mult = (file=../../../../../profiles/res_kw_1149_pu.csv) qmult = (file=../../../../../profiles/res_kvar_1149_pu.csv)

New Loadshape.res_kw_327_pu npts= 35040 interval=0.25 mult = (file=../../../../../profiles/res_kw_327_pu.csv) qmult = (file=../../../../../profiles/res_kvar_327_pu.csv)

New Loadshape.res_kw_1041_pu npts= 35040 interval=0.25 mult = (file=../../../../../profiles/res_kw_1041_pu.csv) qmult = (file=../../../../../profiles/res_kvar_1041_pu.csv)

New Loadshape.res_kw_931_pu npts= 35040 interval=0.25 mult = (file=../../../../../profiles/res_kw_931_pu.csv) qmult = (file=../../../../../profiles/res_kvar_931_pu.csv)

New Loadshape.res_kw_39_pu npts= 35040 interval=0.25 mult = (file=../../../../../profiles/res_kw_39_pu.csv) qmult = (file=../../../../../profiles/res_kvar_39_pu.csv)

New Loadshape.res_kw_1187_pu npts= 35040 interval=0.25 mult = (file=../../../../../profiles/res_kw_1187_pu.csv) qmult = (file=../../../../../profiles/res_kvar_1187_pu.csv)

New Loadshape.res_kw_1186_pu npts= 35040 interval=0.25 mult = (file=../../../../../profiles/res_kw_1186_pu.csv) qmult = (file=../../../../../profiles/res_kvar_1186_pu.csv)

New Loadshape.res_kw_823_pu npts= 35040 interval=0.25 mult = (file=../../../../../profiles/res_kw_823_pu.csv) qmult = (file=../../../../../profiles/res_kvar_823_pu.csv)

New Loadshape.res_kw_621_pu npts= 35040 interval=0.25 mult = (file=../../../../../profiles/res_kw_621_pu.csv) qmult = (file=../../../../../profiles/res_kvar_621_pu.csv)

New Loadshape.res_kw_1228_pu npts= 35040 interval=0.25 mult = (file=../../../../../profiles/res_kw_1228_pu.csv) qmult = (file=../../../../../profiles/res_kvar_1228_pu.csv)

New Loadshape.res_kw_504_pu npts= 35040 interval=0.25 mult = (file=../../../../../profiles/res_kw_504_pu.csv) qmult = (file=../../../../../profiles/res_kvar_504_pu.csv)

New Loadshape.res_kw_473_pu npts= 35040 interval=0.25 mult = (file=../../../../../profiles/res_kw_473_pu.csv) qmult = (file=../../../../../profiles/res_kvar_473_pu.csv)

New Loadshape.res_kw_819_pu npts= 35040 interval=0.25 mult = (file=../../../../../profiles/res_kw_819_pu.csv) qmult = (file=../../../../../profiles/res_kvar_819_pu.csv)

New Loadshape.res_kw_355_pu npts= 35040 interval=0.25 mult = (file=../../../../../profiles/res_kw_355_pu.csv) qmult = (file=../../../../../profiles/res_kvar_355_pu.csv)

New Loadshape.res_kw_250_pu npts= 35040 interval=0.25 mult = (file=../../../../../profiles/res_kw_250_pu.csv) qmult = (file=../../../../../profiles/res_kvar_250_pu.csv)

New Loadshape.res_kw_512_pu npts= 35040 interval=0.25 mult = (file=../../../../../profiles/res_kw_512_pu.csv) qmult = (file=../../../../../profiles/res_kvar_512_pu.csv)

New Loadshape.res_kw_162_pu npts= 35040 interval=0.25 mult = (file=../../../../../profiles/res_kw_162_pu.csv) qmult = (file=../../../../../profiles/res_kvar_162_pu.csv)

New Loadshape.res_kw_1273_pu npts= 35040 interval=0.25 mult = (file=../../../../../profiles/res_kw_1273_pu.csv) qmult = (file=../../../../../profiles/res_kvar_1273_pu.csv)

New Loadshape.res_kw_1083_pu npts= 35040 interval=0.25 mult = (file=../../../../../profiles/res_kw_1083_pu.csv) qmult = (file=../../../../../profiles/res_kvar_1083_pu.csv)

New Loadshape.res_kw_280_pu npts= 35040 interval=0.25 mult = (file=../../../../../profiles/res_kw_280_pu.csv) qmult = (file=../../../../../profiles/res_kvar_280_pu.csv)

New Loadshape.res_kw_331_pu npts= 35040 interval=0.25 mult = (file=../../../../../profiles/res_kw_331_pu.csv) qmult = (file=../../../../../profiles/res_kvar_331_pu.csv)

New Loadshape.res_kw_362_pu npts= 35040 interval=0.25 mult = (file=../../../../../profiles/res_kw_362_pu.csv) qmult = (file=../../../../../profiles/res_kvar_362_pu.csv)

New Loadshape.res_kw_597_pu npts= 35040 interval=0.25 mult = (file=../../../../../profiles/res_kw_597_pu.csv) qmult = (file=../../../../../profiles/res_kvar_597_pu.csv)

New Loadshape.res_kw_40_pu npts= 35040 interval=0.25 mult = (file=../../../../../profiles/res_kw_40_pu.csv) qmult = (file=../../../../../profiles/res_kvar_40_pu.csv)

New Loadshape.res_kw_1266_pu npts= 35040 interval=0.25 mult = (file=../../../../../profiles/res_kw_1266_pu.csv) qmult = (file=../../../../../profiles/res_kvar_1266_pu.csv)

New Loadshape.res_kw_1070_pu npts= 35040 interval=0.25 mult = (file=../../../../../profiles/res_kw_1070_pu.csv) qmult = (file=../../../../../profiles/res_kvar_1070_pu.csv)

New Loadshape.res_kw_898_pu npts= 35040 interval=0.25 mult = (file=../../../../../profiles/res_kw_898_pu.csv) qmult = (file=../../../../../profiles/res_kvar_898_pu.csv)

New Loadshape.res_kw_203_pu npts= 35040 interval=0.25 mult = (file=../../../../../profiles/res_kw_203_pu.csv) qmult = (file=../../../../../profiles/res_kvar_203_pu.csv)

New Loadshape.res_kw_1080_pu npts= 35040 interval=0.25 mult = (file=../../../../../profiles/res_kw_1080_pu.csv) qmult = (file=../../../../../profiles/res_kvar_1080_pu.csv)

New Loadshape.res_kw_188_pu npts= 35040 interval=0.25 mult = (file=../../../../../profiles/res_kw_188_pu.csv) qmult = (file=../../../../../profiles/res_kvar_188_pu.csv)

New Loadshape.res_kw_752_pu npts= 35040 interval=0.25 mult = (file=../../../../../profiles/res_kw_752_pu.csv) qmult = (file=../../../../../profiles/res_kvar_752_pu.csv)

New Loadshape.res_kw_1108_pu npts= 35040 interval=0.25 mult = (file=../../../../../profiles/res_kw_1108_pu.csv) qmult = (file=../../../../../profiles/res_kvar_1108_pu.csv)

New Loadshape.res_kw_75_pu npts= 35040 interval=0.25 mult = (file=../../../../../profiles/res_kw_75_pu.csv) qmult = (file=../../../../../profiles/res_kvar_75_pu.csv)

New Loadshape.res_kw_197_pu npts= 35040 interval=0.25 mult = (file=../../../../../profiles/res_kw_197_pu.csv) qmult = (file=../../../../../profiles/res_kvar_197_pu.csv)

New Loadshape.res_kw_626_pu npts= 35040 interval=0.25 mult = (file=../../../../../profiles/res_kw_626_pu.csv) qmult = (file=../../../../../profiles/res_kvar_626_pu.csv)

New Loadshape.res_kw_411_pu npts= 35040 interval=0.25 mult = (file=../../../../../profiles/res_kw_411_pu.csv) qmult = (file=../../../../../profiles/res_kvar_411_pu.csv)

New Loadshape.res_kw_394_pu npts= 35040 interval=0.25 mult = (file=../../../../../profiles/res_kw_394_pu.csv) qmult = (file=../../../../../profiles/res_kvar_394_pu.csv)

New Loadshape.res_kw_324_pu npts= 35040 interval=0.25 mult = (file=../../../../../profiles/res_kw_324_pu.csv) qmult = (file=../../../../../profiles/res_kvar_324_pu.csv)

New Loadshape.res_kw_101_pu npts= 35040 interval=0.25 mult = (file=../../../../../profiles/res_kw_101_pu.csv) qmult = (file=../../../../../profiles/res_kvar_101_pu.csv)

New Loadshape.res_kw_63_pu npts= 35040 interval=0.25 mult = (file=../../../../../profiles/res_kw_63_pu.csv) qmult = (file=../../../../../profiles/res_kvar_63_pu.csv)

New Loadshape.res_kw_1267_pu npts= 35040 interval=0.25 mult = (file=../../../../../profiles/res_kw_1267_pu.csv) qmult = (file=../../../../../profiles/res_kvar_1267_pu.csv)

New Loadshape.res_kw_754_pu npts= 35040 interval=0.25 mult = (file=../../../../../profiles/res_kw_754_pu.csv) qmult = (file=../../../../../profiles/res_kvar_754_pu.csv)

New Loadshape.res_kw_924_pu npts= 35040 interval=0.25 mult = (file=../../../../../profiles/res_kw_924_pu.csv) qmult = (file=../../../../../profiles/res_kvar_924_pu.csv)

New Loadshape.res_kw_76_pu npts= 35040 interval=0.25 mult = (file=../../../../../profiles/res_kw_76_pu.csv) qmult = (file=../../../../../profiles/res_kvar_76_pu.csv)

New Loadshape.res_kw_684_pu npts= 35040 interval=0.25 mult = (file=../../../../../profiles/res_kw_684_pu.csv) qmult = (file=../../../../../profiles/res_kvar_684_pu.csv)

New Loadshape.res_kw_932_pu npts= 35040 interval=0.25 mult = (file=../../../../../profiles/res_kw_932_pu.csv) qmult = (file=../../../../../profiles/res_kvar_932_pu.csv)

New Loadshape.res_kw_1036_pu npts= 35040 interval=0.25 mult = (file=../../../../../profiles/res_kw_1036_pu.csv) qmult = (file=../../../../../profiles/res_kvar_1036_pu.csv)

New Loadshape.res_kw_710_pu npts= 35040 interval=0.25 mult = (file=../../../../../profiles/res_kw_710_pu.csv) qmult = (file=../../../../../profiles/res_kvar_710_pu.csv)

New Loadshape.res_kw_20_pu npts= 35040 interval=0.25 mult = (file=../../../../../profiles/res_kw_20_pu.csv) qmult = (file=../../../../../profiles/res_kvar_20_pu.csv)

New Loadshape.res_kw_1162_pu npts= 35040 interval=0.25 mult = (file=../../../../../profiles/res_kw_1162_pu.csv) qmult = (file=../../../../../profiles/res_kvar_1162_pu.csv)

New Loadshape.res_kw_760_pu npts= 35040 interval=0.25 mult = (file=../../../../../profiles/res_kw_760_pu.csv) qmult = (file=../../../../../profiles/res_kvar_760_pu.csv)

New Loadshape.res_kw_624_pu npts= 35040 interval=0.25 mult = (file=../../../../../profiles/res_kw_624_pu.csv) qmult = (file=../../../../../profiles/res_kvar_624_pu.csv)

New Loadshape.res_kw_273_pu npts= 35040 interval=0.25 mult = (file=../../../../../profiles/res_kw_273_pu.csv) qmult = (file=../../../../../profiles/res_kvar_273_pu.csv)

New Loadshape.res_kw_283_pu npts= 35040 interval=0.25 mult = (file=../../../../../profiles/res_kw_283_pu.csv) qmult = (file=../../../../../profiles/res_kvar_283_pu.csv)

New Loadshape.res_kw_1115_pu npts= 35040 interval=0.25 mult = (file=../../../../../profiles/res_kw_1115_pu.csv) qmult = (file=../../../../../profiles/res_kvar_1115_pu.csv)

New Loadshape.res_kw_686_pu npts= 35040 interval=0.25 mult = (file=../../../../../profiles/res_kw_686_pu.csv) qmult = (file=../../../../../profiles/res_kvar_686_pu.csv)

New Loadshape.res_kw_1157_pu npts= 35040 interval=0.25 mult = (file=../../../../../profiles/res_kw_1157_pu.csv) qmult = (file=../../../../../profiles/res_kvar_1157_pu.csv)

New Loadshape.res_kw_314_pu npts= 35040 interval=0.25 mult = (file=../../../../../profiles/res_kw_314_pu.csv) qmult = (file=../../../../../profiles/res_kvar_314_pu.csv)

New Loadshape.res_kw_1256_pu npts= 35040 interval=0.25 mult = (file=../../../../../profiles/res_kw_1256_pu.csv) qmult = (file=../../../../../profiles/res_kvar_1256_pu.csv)

New Loadshape.res_kw_598_pu npts= 35040 interval=0.25 mult = (file=../../../../../profiles/res_kw_598_pu.csv) qmult = (file=../../../../../profiles/res_kvar_598_pu.csv)

New Loadshape.res_kw_332_pu npts= 35040 interval=0.25 mult = (file=../../../../../profiles/res_kw_332_pu.csv) qmult = (file=../../../../../profiles/res_kvar_332_pu.csv)

New Loadshape.res_kw_123_pu npts= 35040 interval=0.25 mult = (file=../../../../../profiles/res_kw_123_pu.csv) qmult = (file=../../../../../profiles/res_kvar_123_pu.csv)

New Loadshape.res_kw_53_pu npts= 35040 interval=0.25 mult = (file=../../../../../profiles/res_kw_53_pu.csv) qmult = (file=../../../../../profiles/res_kvar_53_pu.csv)

New Loadshape.res_kw_630_pu npts= 35040 interval=0.25 mult = (file=../../../../../profiles/res_kw_630_pu.csv) qmult = (file=../../../../../profiles/res_kvar_630_pu.csv)

New Loadshape.res_kw_653_pu npts= 35040 interval=0.25 mult = (file=../../../../../profiles/res_kw_653_pu.csv) qmult = (file=../../../../../profiles/res_kvar_653_pu.csv)

New Loadshape.res_kw_905_pu npts= 35040 interval=0.25 mult = (file=../../../../../profiles/res_kw_905_pu.csv) qmult = (file=../../../../../profiles/res_kvar_905_pu.csv)

New Loadshape.res_kw_846_pu npts= 35040 interval=0.25 mult = (file=../../../../../profiles/res_kw_846_pu.csv) qmult = (file=../../../../../profiles/res_kvar_846_pu.csv)

New Loadshape.res_kw_268_pu npts= 35040 interval=0.25 mult = (file=../../../../../profiles/res_kw_268_pu.csv) qmult = (file=../../../../../profiles/res_kvar_268_pu.csv)

New Loadshape.res_kw_261_pu npts= 35040 interval=0.25 mult = (file=../../../../../profiles/res_kw_261_pu.csv) qmult = (file=../../../../../profiles/res_kvar_261_pu.csv)

New Loadshape.res_kw_748_pu npts= 35040 interval=0.25 mult = (file=../../../../../profiles/res_kw_748_pu.csv) qmult = (file=../../../../../profiles/res_kvar_748_pu.csv)

New Loadshape.res_kw_616_pu npts= 35040 interval=0.25 mult = (file=../../../../../profiles/res_kw_616_pu.csv) qmult = (file=../../../../../profiles/res_kvar_616_pu.csv)

New Loadshape.res_kw_736_pu npts= 35040 interval=0.25 mult = (file=../../../../../profiles/res_kw_736_pu.csv) qmult = (file=../../../../../profiles/res_kvar_736_pu.csv)
