New Load.load_p1ulv1659_1 conn=wye bus1=p1ulv1659.1 kV=0.12 Vminpu=0.8 Vmaxpu=1.2 model=1 kW=5.723135606665604 kvar=1.5038194991101048 Phases=1 yearly=res_kw_1228_pu

New Load.load_p1ulv1659_2 conn=wye bus1=p1ulv1659.2 kV=0.12 Vminpu=0.8 Vmaxpu=1.2 model=1 kW=5.723135606665604 kvar=1.5038194991101048 Phases=1 yearly=res_kw_1228_pu

New Load.load_p1ulv1662_1 conn=wye bus1=p1ulv1662.1 kV=0.12 Vminpu=0.8 Vmaxpu=1.2 model=1 kW=5.991917116566147 kvar=1.6692124001399427 Phases=1 yearly=res_kw_314_pu

New Load.load_p1ulv1662_2 conn=wye bus1=p1ulv1662.2 kV=0.12 Vminpu=0.8 Vmaxpu=1.2 model=1 kW=5.991917116566147 kvar=1.6692124001399427 Phases=1 yearly=res_kw_314_pu

New Load.load_p1ulv4810_1 conn=wye bus1=p1ulv4810.1 kV=0.12 Vminpu=0.8 Vmaxpu=1.2 model=1 kW=7.259772519581312 kvar=1.3210086815250959 Phases=1 yearly=res_kw_128_pu

New Load.load_p1ulv4810_2 conn=wye bus1=p1ulv4810.2 kV=0.12 Vminpu=0.8 Vmaxpu=1.2 model=1 kW=7.259772519581312 kvar=1.3210086815250959 Phases=1 yearly=res_kw_128_pu

New Load.load_p1ulv4811_1 conn=wye bus1=p1ulv4811.1 kV=0.12 Vminpu=0.8 Vmaxpu=1.2 model=1 kW=4.746269311492783 kvar=1.3210751032938461 Phases=1 yearly=res_kw_1080_pu

New Load.load_p1ulv4811_2 conn=wye bus1=p1ulv4811.2 kV=0.12 Vminpu=0.8 Vmaxpu=1.2 model=1 kW=4.746269311492783 kvar=1.3210751032938461 Phases=1 yearly=res_kw_1080_pu

New Load.load_p1ulv4812_1 conn=wye bus1=p1ulv4812.1 kV=0.12 Vminpu=0.8 Vmaxpu=1.2 model=1 kW=3.629714039262861 kvar=1.2034402112399032 Phases=1 yearly=res_kw_203_pu

New Load.load_p1ulv4812_2 conn=wye bus1=p1ulv4812.2 kV=0.12 Vminpu=0.8 Vmaxpu=1.2 model=1 kW=3.629714039262861 kvar=1.2034402112399032 Phases=1 yearly=res_kw_203_pu

New Load.load_p1ulv4813_1 conn=wye bus1=p1ulv4813.1 kV=0.12 Vminpu=0.8 Vmaxpu=1.2 model=1 kW=4.295703971004243 kvar=1.5592692759891595 Phases=1 yearly=res_kw_282_pu

New Load.load_p1ulv4813_2 conn=wye bus1=p1ulv4813.2 kV=0.12 Vminpu=0.8 Vmaxpu=1.2 model=1 kW=4.295703971004243 kvar=1.5592692759891595 Phases=1 yearly=res_kw_282_pu

New Load.load_p1ulv4814_1 conn=wye bus1=p1ulv4814.1 kV=0.12 Vminpu=0.8 Vmaxpu=1.2 model=1 kW=3.629714039262861 kvar=1.2034402112399032 Phases=1 yearly=res_kw_203_pu

New Load.load_p1ulv4814_2 conn=wye bus1=p1ulv4814.2 kV=0.12 Vminpu=0.8 Vmaxpu=1.2 model=1 kW=3.629714039262861 kvar=1.2034402112399032 Phases=1 yearly=res_kw_203_pu

New Load.load_p1ulv4815_1 conn=wye bus1=p1ulv4815.1 kV=0.12 Vminpu=0.8 Vmaxpu=1.2 model=1 kW=6.168408370727534 kvar=1.492740670010399 Phases=1 yearly=res_kw_1162_pu

New Load.load_p1ulv4815_2 conn=wye bus1=p1ulv4815.2 kV=0.12 Vminpu=0.8 Vmaxpu=1.2 model=1 kW=6.168408370727534 kvar=1.492740670010399 Phases=1 yearly=res_kw_1162_pu

New Load.load_p1ulv4816_1 conn=wye bus1=p1ulv4816.1 kV=0.12 Vminpu=0.8 Vmaxpu=1.2 model=1 kW=8.188438755655785 kvar=1.0979918296007287 Phases=1 yearly=res_kw_450_pu

New Load.load_p1ulv4816_2 conn=wye bus1=p1ulv4816.2 kV=0.12 Vminpu=0.8 Vmaxpu=1.2 model=1 kW=8.188438755655785 kvar=1.0979918296007287 Phases=1 yearly=res_kw_450_pu

New Load.load_p1ulv4817_1 conn=wye bus1=p1ulv4817.1 kV=0.12 Vminpu=0.8 Vmaxpu=1.2 model=1 kW=5.574466357705123 kvar=1.0791692562247137 Phases=1 yearly=res_kw_1083_pu

New Load.load_p1ulv4817_2 conn=wye bus1=p1ulv4817.2 kV=0.12 Vminpu=0.8 Vmaxpu=1.2 model=1 kW=5.574466357705123 kvar=1.0791692562247137 Phases=1 yearly=res_kw_1083_pu

New Load.load_p1ulv4818_1 conn=wye bus1=p1ulv4818.1 kV=0.12 Vminpu=0.8 Vmaxpu=1.2 model=1 kW=2.8808589162778904 kvar=0.2835073949750637 Phases=1 yearly=res_kw_1036_pu

New Load.load_p1ulv4818_2 conn=wye bus1=p1ulv4818.2 kV=0.12 Vminpu=0.8 Vmaxpu=1.2 model=1 kW=2.8808589162778904 kvar=0.2835073949750637 Phases=1 yearly=res_kw_1036_pu

New Load.load_p1ulv4819_1 conn=wye bus1=p1ulv4819.1 kV=0.12 Vminpu=0.8 Vmaxpu=1.2 model=1 kW=5.286987923172412 kvar=0.912918656895422 Phases=1 yearly=res_kw_75_pu

New Load.load_p1ulv4819_2 conn=wye bus1=p1ulv4819.2 kV=0.12 Vminpu=0.8 Vmaxpu=1.2 model=1 kW=5.286987923172412 kvar=0.912918656895422 Phases=1 yearly=res_kw_75_pu

New Load.load_p1ulv4820_1 conn=wye bus1=p1ulv4820.1 kV=0.12 Vminpu=0.8 Vmaxpu=1.2 model=1 kW=2.916803644387601 kvar=0.11499518252231355 Phases=1 yearly=res_kw_1094_pu

New Load.load_p1ulv4820_2 conn=wye bus1=p1ulv4820.2 kV=0.12 Vminpu=0.8 Vmaxpu=1.2 model=1 kW=2.916803644387601 kvar=0.11499518252231355 Phases=1 yearly=res_kw_1094_pu

New Load.load_p1ulv4821_1 conn=wye bus1=p1ulv4821.1 kV=0.12 Vminpu=0.8 Vmaxpu=1.2 model=1 kW=6.224817813202313 kvar=1.7553010009693135 Phases=1 yearly=res_kw_710_pu

New Load.load_p1ulv4821_2 conn=wye bus1=p1ulv4821.2 kV=0.12 Vminpu=0.8 Vmaxpu=1.2 model=1 kW=6.224817813202313 kvar=1.7553010009693135 Phases=1 yearly=res_kw_710_pu

New Load.load_p1ulv4823_1 conn=wye bus1=p1ulv4823.1 kV=0.12 Vminpu=0.8 Vmaxpu=1.2 model=1 kW=4.729490236624554 kvar=0.8722842145726449 Phases=1 yearly=res_kw_624_pu

New Load.load_p1ulv4823_2 conn=wye bus1=p1ulv4823.2 kV=0.12 Vminpu=0.8 Vmaxpu=1.2 model=1 kW=4.729490236624554 kvar=0.8722842145726449 Phases=1 yearly=res_kw_624_pu

New Load.load_p1ulv4824_1 conn=wye bus1=p1ulv4824.1 kV=0.12 Vminpu=0.8 Vmaxpu=1.2 model=1 kW=3.9060227283575606 kvar=0.8578020352767629 Phases=1 yearly=res_kw_278_pu

New Load.load_p1ulv4824_2 conn=wye bus1=p1ulv4824.2 kV=0.12 Vminpu=0.8 Vmaxpu=1.2 model=1 kW=3.9060227283575606 kvar=0.8578020352767629 Phases=1 yearly=res_kw_278_pu

New Load.load_p1ulv4825_1 conn=wye bus1=p1ulv4825.1 kV=0.12 Vminpu=0.8 Vmaxpu=1.2 model=1 kW=5.286987923172412 kvar=0.912918656895422 Phases=1 yearly=res_kw_75_pu

New Load.load_p1ulv4825_2 conn=wye bus1=p1ulv4825.2 kV=0.12 Vminpu=0.8 Vmaxpu=1.2 model=1 kW=5.286987923172412 kvar=0.912918656895422 Phases=1 yearly=res_kw_75_pu

New Load.load_p1ulv4826_1 conn=wye bus1=p1ulv4826.1 kV=0.12 Vminpu=0.8 Vmaxpu=1.2 model=1 kW=2.40000228705824 kvar=1.0173787262529668 Phases=1 yearly=res_kw_1205_pu

New Load.load_p1ulv4826_2 conn=wye bus1=p1ulv4826.2 kV=0.12 Vminpu=0.8 Vmaxpu=1.2 model=1 kW=2.40000228705824 kvar=1.0173787262529668 Phases=1 yearly=res_kw_1205_pu

New Load.load_p1ulv4827_1 conn=wye bus1=p1ulv4827.1 kV=0.12 Vminpu=0.8 Vmaxpu=1.2 model=1 kW=3.4468581914223817 kvar=1.1411197390818253 Phases=1 yearly=res_kw_250_pu

New Load.load_p1ulv4827_2 conn=wye bus1=p1ulv4827.2 kV=0.12 Vminpu=0.8 Vmaxpu=1.2 model=1 kW=3.4468581914223817 kvar=1.1411197390818253 Phases=1 yearly=res_kw_250_pu

New Load.load_p1ulv4828_1 conn=wye bus1=p1ulv4828.1 kV=0.12 Vminpu=0.8 Vmaxpu=1.2 model=1 kW=5.723135606665604 kvar=1.5038194991101048 Phases=1 yearly=res_kw_1228_pu

New Load.load_p1ulv4828_2 conn=wye bus1=p1ulv4828.2 kV=0.12 Vminpu=0.8 Vmaxpu=1.2 model=1 kW=5.723135606665604 kvar=1.5038194991101048 Phases=1 yearly=res_kw_1228_pu

New Load.load_p1ulv4829_1 conn=wye bus1=p1ulv4829.1 kV=0.12 Vminpu=0.8 Vmaxpu=1.2 model=1 kW=3.7845214109638885 kvar=0.7491783232179929 Phases=1 yearly=res_kw_464_pu

New Load.load_p1ulv4829_2 conn=wye bus1=p1ulv4829.2 kV=0.12 Vminpu=0.8 Vmaxpu=1.2 model=1 kW=3.7845214109638885 kvar=0.7491783232179929 Phases=1 yearly=res_kw_464_pu

New Load.load_p1ulv4831_1 conn=wye bus1=p1ulv4831.1 kV=0.12 Vminpu=0.8 Vmaxpu=1.2 model=1 kW=3.8029744718879392 kvar=1.1462670306842289 Phases=1 yearly=res_kw_263_pu

New Load.load_p1ulv4831_2 conn=wye bus1=p1ulv4831.2 kV=0.12 Vminpu=0.8 Vmaxpu=1.2 model=1 kW=3.8029744718879392 kvar=1.1462670306842289 Phases=1 yearly=res_kw_263_pu

New Load.load_p1ulv4833_1 conn=wye bus1=p1ulv4833.1 kV=0.12 Vminpu=0.8 Vmaxpu=1.2 model=1 kW=5.166227040370808 kvar=0.941312930764753 Phases=1 yearly=res_kw_852_pu

New Load.load_p1ulv4833_2 conn=wye bus1=p1ulv4833.2 kV=0.12 Vminpu=0.8 Vmaxpu=1.2 model=1 kW=5.166227040370808 kvar=0.941312930764753 Phases=1 yearly=res_kw_852_pu

New Load.load_p1ulv4834_1 conn=wye bus1=p1ulv4834.1 kV=0.12 Vminpu=0.8 Vmaxpu=1.2 model=1 kW=11.457721527492426 kvar=1.3801854390555242 Phases=1 yearly=res_kw_861_pu

New Load.load_p1ulv4834_2 conn=wye bus1=p1ulv4834.2 kV=0.12 Vminpu=0.8 Vmaxpu=1.2 model=1 kW=11.457721527492426 kvar=1.3801854390555242 Phases=1 yearly=res_kw_861_pu

New Load.load_p1ulv4835_1 conn=wye bus1=p1ulv4835.1 kV=0.12 Vminpu=0.8 Vmaxpu=1.2 model=1 kW=5.436729579526792 kvar=1.2488470964899614 Phases=1 yearly=res_kw_454_pu

New Load.load_p1ulv4835_2 conn=wye bus1=p1ulv4835.2 kV=0.12 Vminpu=0.8 Vmaxpu=1.2 model=1 kW=5.436729579526792 kvar=1.2488470964899614 Phases=1 yearly=res_kw_454_pu

New Load.load_p1ulv4836_1 conn=wye bus1=p1ulv4836.1 kV=0.12 Vminpu=0.8 Vmaxpu=1.2 model=1 kW=6.168408370727534 kvar=1.492740670010399 Phases=1 yearly=res_kw_1162_pu

New Load.load_p1ulv4836_2 conn=wye bus1=p1ulv4836.2 kV=0.12 Vminpu=0.8 Vmaxpu=1.2 model=1 kW=6.168408370727534 kvar=1.492740670010399 Phases=1 yearly=res_kw_1162_pu

New Load.load_p1ulv4837_1 conn=wye bus1=p1ulv4837.1 kV=0.12 Vminpu=0.8 Vmaxpu=1.2 model=1 kW=4.725263221485363 kvar=1.0173757011563145 Phases=1 yearly=res_kw_752_pu

New Load.load_p1ulv4837_2 conn=wye bus1=p1ulv4837.2 kV=0.12 Vminpu=0.8 Vmaxpu=1.2 model=1 kW=4.725263221485363 kvar=1.0173757011563145 Phases=1 yearly=res_kw_752_pu

New Load.load_p1ulv4838_1 conn=wye bus1=p1ulv4838.1 kV=0.12 Vminpu=0.8 Vmaxpu=1.2 model=1 kW=7.088530083600876 kvar=2.6134476319600712 Phases=1 yearly=res_kw_267_pu

New Load.load_p1ulv4838_2 conn=wye bus1=p1ulv4838.2 kV=0.12 Vminpu=0.8 Vmaxpu=1.2 model=1 kW=7.088530083600876 kvar=2.6134476319600712 Phases=1 yearly=res_kw_267_pu

New Load.load_p1ulv4839_1 conn=wye bus1=p1ulv4839.1 kV=0.12 Vminpu=0.8 Vmaxpu=1.2 model=1 kW=4.80777430622987 kvar=1.4183053271274066 Phases=1 yearly=res_kw_1023_pu

New Load.load_p1ulv4839_2 conn=wye bus1=p1ulv4839.2 kV=0.12 Vminpu=0.8 Vmaxpu=1.2 model=1 kW=4.80777430622987 kvar=1.4183053271274066 Phases=1 yearly=res_kw_1023_pu

New Load.load_p1ulv4840_1 conn=wye bus1=p1ulv4840.1 kV=0.12 Vminpu=0.8 Vmaxpu=1.2 model=1 kW=6.139488924452324 kvar=1.0282575631325632 Phases=1 yearly=res_kw_421_pu

New Load.load_p1ulv4840_2 conn=wye bus1=p1ulv4840.2 kV=0.12 Vminpu=0.8 Vmaxpu=1.2 model=1 kW=6.139488924452324 kvar=1.0282575631325632 Phases=1 yearly=res_kw_421_pu

New Load.load_p1ulv4841_1 conn=wye bus1=p1ulv4841.1 kV=0.12 Vminpu=0.8 Vmaxpu=1.2 model=1 kW=5.436729579526792 kvar=1.2488470964899614 Phases=1 yearly=res_kw_454_pu

New Load.load_p1ulv4841_2 conn=wye bus1=p1ulv4841.2 kV=0.12 Vminpu=0.8 Vmaxpu=1.2 model=1 kW=5.436729579526792 kvar=1.2488470964899614 Phases=1 yearly=res_kw_454_pu

New Load.load_p1ulv4842_1 conn=wye bus1=p1ulv4842.1 kV=0.12 Vminpu=0.8 Vmaxpu=1.2 model=1 kW=3.3022463090013963 kvar=0.3558858552969609 Phases=1 yearly=res_kw_236_pu

New Load.load_p1ulv4842_2 conn=wye bus1=p1ulv4842.2 kV=0.12 Vminpu=0.8 Vmaxpu=1.2 model=1 kW=3.3022463090013963 kvar=0.3558858552969609 Phases=1 yearly=res_kw_236_pu

New Load.load_p1ulv4843_1 conn=wye bus1=p1ulv4843.1 kV=0.12 Vminpu=0.8 Vmaxpu=1.2 model=1 kW=2.40000228705824 kvar=1.0173787262529668 Phases=1 yearly=res_kw_1205_pu

New Load.load_p1ulv4843_2 conn=wye bus1=p1ulv4843.2 kV=0.12 Vminpu=0.8 Vmaxpu=1.2 model=1 kW=2.40000228705824 kvar=1.0173787262529668 Phases=1 yearly=res_kw_1205_pu

New Load.load_p1ulv4844_1 conn=wye bus1=p1ulv4844.1 kV=0.12 Vminpu=0.8 Vmaxpu=1.2 model=1 kW=2.40000228705824 kvar=1.0173787262529668 Phases=1 yearly=res_kw_1205_pu

New Load.load_p1ulv4844_2 conn=wye bus1=p1ulv4844.2 kV=0.12 Vminpu=0.8 Vmaxpu=1.2 model=1 kW=2.40000228705824 kvar=1.0173787262529668 Phases=1 yearly=res_kw_1205_pu

New Load.load_p1ulv4845_1 conn=wye bus1=p1ulv4845.1 kV=0.12 Vminpu=0.8 Vmaxpu=1.2 model=1 kW=5.436729579526792 kvar=1.2488470964899614 Phases=1 yearly=res_kw_454_pu

New Load.load_p1ulv4845_2 conn=wye bus1=p1ulv4845.2 kV=0.12 Vminpu=0.8 Vmaxpu=1.2 model=1 kW=5.436729579526792 kvar=1.2488470964899614 Phases=1 yearly=res_kw_454_pu

New Load.load_p1ulv4846_1 conn=wye bus1=p1ulv4846.1 kV=0.12 Vminpu=0.8 Vmaxpu=1.2 model=1 kW=6.727252203449795 kvar=1.9067277455995406 Phases=1 yearly=res_kw_822_pu

New Load.load_p1ulv4846_2 conn=wye bus1=p1ulv4846.2 kV=0.12 Vminpu=0.8 Vmaxpu=1.2 model=1 kW=6.727252203449795 kvar=1.9067277455995406 Phases=1 yearly=res_kw_822_pu

New Load.load_p1ulv4847_1 conn=wye bus1=p1ulv4847.1 kV=0.12 Vminpu=0.8 Vmaxpu=1.2 model=1 kW=9.666699253995569 kvar=2.090221480167897 Phases=1 yearly=res_kw_46_pu

New Load.load_p1ulv4847_2 conn=wye bus1=p1ulv4847.2 kV=0.12 Vminpu=0.8 Vmaxpu=1.2 model=1 kW=9.666699253995569 kvar=2.090221480167897 Phases=1 yearly=res_kw_46_pu

New Load.load_p1ulv4848_1 conn=wye bus1=p1ulv4848.1 kV=0.12 Vminpu=0.8 Vmaxpu=1.2 model=1 kW=7.259772519581312 kvar=1.3210086815250959 Phases=1 yearly=res_kw_128_pu

New Load.load_p1ulv4848_2 conn=wye bus1=p1ulv4848.2 kV=0.12 Vminpu=0.8 Vmaxpu=1.2 model=1 kW=7.259772519581312 kvar=1.3210086815250959 Phases=1 yearly=res_kw_128_pu

New Load.load_p1ulv4849_1 conn=wye bus1=p1ulv4849.1 kV=0.12 Vminpu=0.8 Vmaxpu=1.2 model=1 kW=5.630366406134325 kvar=1.4654988363403099 Phases=1 yearly=res_kw_251_pu

New Load.load_p1ulv4849_2 conn=wye bus1=p1ulv4849.2 kV=0.12 Vminpu=0.8 Vmaxpu=1.2 model=1 kW=5.630366406134325 kvar=1.4654988363403099 Phases=1 yearly=res_kw_251_pu

New Load.load_p1ulv4850_1 conn=wye bus1=p1ulv4850.1 kV=0.12 Vminpu=0.8 Vmaxpu=1.2 model=1 kW=5.286987923172412 kvar=0.912918656895422 Phases=1 yearly=res_kw_75_pu

New Load.load_p1ulv4850_2 conn=wye bus1=p1ulv4850.2 kV=0.12 Vminpu=0.8 Vmaxpu=1.2 model=1 kW=5.286987923172412 kvar=0.912918656895422 Phases=1 yearly=res_kw_75_pu

New Load.load_p1ulv6234_1 conn=wye bus1=p1ulv6234.1 kV=0.12 Vminpu=0.8 Vmaxpu=1.2 model=1 kW=4.729490236624554 kvar=0.8722842145726449 Phases=1 yearly=res_kw_624_pu

New Load.load_p1ulv6234_2 conn=wye bus1=p1ulv6234.2 kV=0.12 Vminpu=0.8 Vmaxpu=1.2 model=1 kW=4.729490236624554 kvar=0.8722842145726449 Phases=1 yearly=res_kw_624_pu

New Load.load_p1ulv6274_1 conn=wye bus1=p1ulv6274.1 kV=0.12 Vminpu=0.8 Vmaxpu=1.2 model=1 kW=3.4468581914223817 kvar=1.1411197390818253 Phases=1 yearly=res_kw_250_pu

New Load.load_p1ulv6274_2 conn=wye bus1=p1ulv6274.2 kV=0.12 Vminpu=0.8 Vmaxpu=1.2 model=1 kW=3.4468581914223817 kvar=1.1411197390818253 Phases=1 yearly=res_kw_250_pu

New Load.load_p1ulv6275_1 conn=wye bus1=p1ulv6275.1 kV=0.12 Vminpu=0.8 Vmaxpu=1.2 model=1 kW=7.721615461137303 kvar=1.7536039230317741 Phases=1 yearly=res_kw_1013_pu

New Load.load_p1ulv6275_2 conn=wye bus1=p1ulv6275.2 kV=0.12 Vminpu=0.8 Vmaxpu=1.2 model=1 kW=7.721615461137303 kvar=1.7536039230317741 Phases=1 yearly=res_kw_1013_pu

New Load.load_p1ulv6276_1 conn=wye bus1=p1ulv6276.1 kV=0.12 Vminpu=0.8 Vmaxpu=1.2 model=1 kW=4.708977442537992 kvar=0.5396715316626463 Phases=1 yearly=res_kw_1138_pu

New Load.load_p1ulv6276_2 conn=wye bus1=p1ulv6276.2 kV=0.12 Vminpu=0.8 Vmaxpu=1.2 model=1 kW=4.708977442537992 kvar=0.5396715316626463 Phases=1 yearly=res_kw_1138_pu

New Load.load_p1ulv6277_1 conn=wye bus1=p1ulv6277.1 kV=0.12 Vminpu=0.8 Vmaxpu=1.2 model=1 kW=5.991566549041883 kvar=1.4552695367795996 Phases=1 yearly=res_kw_1283_pu

New Load.load_p1ulv6277_2 conn=wye bus1=p1ulv6277.2 kV=0.12 Vminpu=0.8 Vmaxpu=1.2 model=1 kW=5.991566549041883 kvar=1.4552695367795996 Phases=1 yearly=res_kw_1283_pu

New Load.load_p1ulv6278_1 conn=wye bus1=p1ulv6278.1 kV=0.12 Vminpu=0.8 Vmaxpu=1.2 model=1 kW=5.6593015111322105 kvar=1.2761251920573724 Phases=1 yearly=res_kw_324_pu

New Load.load_p1ulv6278_2 conn=wye bus1=p1ulv6278.2 kV=0.12 Vminpu=0.8 Vmaxpu=1.2 model=1 kW=5.6593015111322105 kvar=1.2761251920573724 Phases=1 yearly=res_kw_324_pu

New Load.load_p1ulv6279_1 conn=wye bus1=p1ulv6279.1 kV=0.12 Vminpu=0.8 Vmaxpu=1.2 model=1 kW=22.838423780717637 kvar=6.165277523536115 Phases=1 yearly=res_kw_298_pu

New Load.load_p1ulv6279_2 conn=wye bus1=p1ulv6279.2 kV=0.12 Vminpu=0.8 Vmaxpu=1.2 model=1 kW=22.838423780717637 kvar=6.165277523536115 Phases=1 yearly=res_kw_298_pu

New Load.load_p1ulv6280_1 conn=wye bus1=p1ulv6280.1 kV=0.12 Vminpu=0.8 Vmaxpu=1.2 model=1 kW=4.792624300749482 kvar=1.1139407265067676 Phases=1 yearly=res_kw_898_pu

New Load.load_p1ulv6280_2 conn=wye bus1=p1ulv6280.2 kV=0.12 Vminpu=0.8 Vmaxpu=1.2 model=1 kW=4.792624300749482 kvar=1.1139407265067676 Phases=1 yearly=res_kw_898_pu

New Load.load_p1ulv6281_1 conn=wye bus1=p1ulv6281.1 kV=0.12 Vminpu=0.8 Vmaxpu=1.2 model=1 kW=14.404204781856079 kvar=3.036808033672637 Phases=1 yearly=res_kw_560_pu

New Load.load_p1ulv6281_2 conn=wye bus1=p1ulv6281.2 kV=0.12 Vminpu=0.8 Vmaxpu=1.2 model=1 kW=14.404204781856079 kvar=3.036808033672637 Phases=1 yearly=res_kw_560_pu

New Load.load_p1ulv6282_1 conn=wye bus1=p1ulv6282.1 kV=0.12 Vminpu=0.8 Vmaxpu=1.2 model=1 kW=7.259772519581312 kvar=1.3210086815250959 Phases=1 yearly=res_kw_128_pu

New Load.load_p1ulv6282_2 conn=wye bus1=p1ulv6282.2 kV=0.12 Vminpu=0.8 Vmaxpu=1.2 model=1 kW=7.259772519581312 kvar=1.3210086815250959 Phases=1 yearly=res_kw_128_pu

New Load.load_p1ulv7777_1 conn=wye bus1=p1ulv7777.1 kV=0.12 Vminpu=0.8 Vmaxpu=1.2 model=1 kW=4.792624300749482 kvar=1.1139407265067676 Phases=1 yearly=res_kw_898_pu

New Load.load_p1ulv7777_2 conn=wye bus1=p1ulv7777.2 kV=0.12 Vminpu=0.8 Vmaxpu=1.2 model=1 kW=4.792624300749482 kvar=1.1139407265067676 Phases=1 yearly=res_kw_898_pu

New Load.load_p1ulv7778_1 conn=wye bus1=p1ulv7778.1 kV=0.12 Vminpu=0.8 Vmaxpu=1.2 model=1 kW=5.630366406134325 kvar=1.4654988363403099 Phases=1 yearly=res_kw_251_pu

New Load.load_p1ulv7778_2 conn=wye bus1=p1ulv7778.2 kV=0.12 Vminpu=0.8 Vmaxpu=1.2 model=1 kW=5.630366406134325 kvar=1.4654988363403099 Phases=1 yearly=res_kw_251_pu

New Load.load_p1ulv7779_1 conn=wye bus1=p1ulv7779.1 kV=0.12 Vminpu=0.8 Vmaxpu=1.2 model=1 kW=2.40000228705824 kvar=1.0173787262529668 Phases=1 yearly=res_kw_1205_pu

New Load.load_p1ulv7779_2 conn=wye bus1=p1ulv7779.2 kV=0.12 Vminpu=0.8 Vmaxpu=1.2 model=1 kW=2.40000228705824 kvar=1.0173787262529668 Phases=1 yearly=res_kw_1205_pu

New Load.load_p1ulv7780_1 conn=wye bus1=p1ulv7780.1 kV=0.12 Vminpu=0.8 Vmaxpu=1.2 model=1 kW=8.002510293265328 kvar=1.3147667835887125 Phases=1 yearly=res_kw_932_pu

New Load.load_p1ulv7780_2 conn=wye bus1=p1ulv7780.2 kV=0.12 Vminpu=0.8 Vmaxpu=1.2 model=1 kW=8.002510293265328 kvar=1.3147667835887125 Phases=1 yearly=res_kw_932_pu

New Load.load_p1ulv7782_1 conn=wye bus1=p1ulv7782.1 kV=0.12 Vminpu=0.8 Vmaxpu=1.2 model=1 kW=3.469755020859998 kvar=0.8941520384931253 Phases=1 yearly=res_kw_4_pu

New Load.load_p1ulv7782_2 conn=wye bus1=p1ulv7782.2 kV=0.12 Vminpu=0.8 Vmaxpu=1.2 model=1 kW=3.469755020859998 kvar=0.8941520384931253 Phases=1 yearly=res_kw_4_pu

New Load.load_p1ulv7783_1 conn=wye bus1=p1ulv7783.1 kV=0.12 Vminpu=0.8 Vmaxpu=1.2 model=1 kW=2.916803644387601 kvar=0.11499518252231355 Phases=1 yearly=res_kw_1094_pu

New Load.load_p1ulv7783_2 conn=wye bus1=p1ulv7783.2 kV=0.12 Vminpu=0.8 Vmaxpu=1.2 model=1 kW=2.916803644387601 kvar=0.11499518252231355 Phases=1 yearly=res_kw_1094_pu

New Load.load_p1ulv7784_1 conn=wye bus1=p1ulv7784.1 kV=0.12 Vminpu=0.8 Vmaxpu=1.2 model=1 kW=11.457721527492426 kvar=1.3801854390555242 Phases=1 yearly=res_kw_861_pu

New Load.load_p1ulv7784_2 conn=wye bus1=p1ulv7784.2 kV=0.12 Vminpu=0.8 Vmaxpu=1.2 model=1 kW=11.457721527492426 kvar=1.3801854390555242 Phases=1 yearly=res_kw_861_pu

New Load.load_p1ulv7785_1 conn=wye bus1=p1ulv7785.1 kV=0.12 Vminpu=0.8 Vmaxpu=1.2 model=1 kW=14.404204781856079 kvar=3.036808033672637 Phases=1 yearly=res_kw_560_pu

New Load.load_p1ulv7785_2 conn=wye bus1=p1ulv7785.2 kV=0.12 Vminpu=0.8 Vmaxpu=1.2 model=1 kW=14.404204781856079 kvar=3.036808033672637 Phases=1 yearly=res_kw_560_pu

New Load.load_p1ulv7786_1 conn=wye bus1=p1ulv7786.1 kV=0.12 Vminpu=0.8 Vmaxpu=1.2 model=1 kW=4.746269311492783 kvar=1.3210751032938461 Phases=1 yearly=res_kw_1080_pu

New Load.load_p1ulv7786_2 conn=wye bus1=p1ulv7786.2 kV=0.12 Vminpu=0.8 Vmaxpu=1.2 model=1 kW=4.746269311492783 kvar=1.3210751032938461 Phases=1 yearly=res_kw_1080_pu

New Load.load_p1ulv7787_1 conn=wye bus1=p1ulv7787.1 kV=0.12 Vminpu=0.8 Vmaxpu=1.2 model=1 kW=4.729490236624554 kvar=0.8722842145726449 Phases=1 yearly=res_kw_624_pu

New Load.load_p1ulv7787_2 conn=wye bus1=p1ulv7787.2 kV=0.12 Vminpu=0.8 Vmaxpu=1.2 model=1 kW=4.729490236624554 kvar=0.8722842145726449 Phases=1 yearly=res_kw_624_pu

New Load.load_p1ulv7788_1 conn=wye bus1=p1ulv7788.1 kV=0.12 Vminpu=0.8 Vmaxpu=1.2 model=1 kW=9.666699253995569 kvar=2.090221480167897 Phases=1 yearly=res_kw_46_pu

New Load.load_p1ulv7788_2 conn=wye bus1=p1ulv7788.2 kV=0.12 Vminpu=0.8 Vmaxpu=1.2 model=1 kW=9.666699253995569 kvar=2.090221480167897 Phases=1 yearly=res_kw_46_pu

New Load.load_p1ulv7789_1 conn=wye bus1=p1ulv7789.1 kV=0.12 Vminpu=0.8 Vmaxpu=1.2 model=1 kW=5.436729579526792 kvar=1.2488470964899614 Phases=1 yearly=res_kw_454_pu

New Load.load_p1ulv7789_2 conn=wye bus1=p1ulv7789.2 kV=0.12 Vminpu=0.8 Vmaxpu=1.2 model=1 kW=5.436729579526792 kvar=1.2488470964899614 Phases=1 yearly=res_kw_454_pu

New Load.load_p1ulv7790_1 conn=wye bus1=p1ulv7790.1 kV=0.12 Vminpu=0.8 Vmaxpu=1.2 model=1 kW=5.436729579526792 kvar=1.2488470964899614 Phases=1 yearly=res_kw_454_pu

New Load.load_p1ulv7790_2 conn=wye bus1=p1ulv7790.2 kV=0.12 Vminpu=0.8 Vmaxpu=1.2 model=1 kW=5.436729579526792 kvar=1.2488470964899614 Phases=1 yearly=res_kw_454_pu

New Load.load_p1ulv7791_1 conn=wye bus1=p1ulv7791.1 kV=0.12 Vminpu=0.8 Vmaxpu=1.2 model=1 kW=4.792624300749482 kvar=1.1139407265067676 Phases=1 yearly=res_kw_898_pu

New Load.load_p1ulv7791_2 conn=wye bus1=p1ulv7791.2 kV=0.12 Vminpu=0.8 Vmaxpu=1.2 model=1 kW=4.792624300749482 kvar=1.1139407265067676 Phases=1 yearly=res_kw_898_pu

New Load.load_p1ulv7792_1 conn=wye bus1=p1ulv7792.1 kV=0.12 Vminpu=0.8 Vmaxpu=1.2 model=1 kW=14.404204781856079 kvar=3.036808033672637 Phases=1 yearly=res_kw_560_pu

New Load.load_p1ulv7792_2 conn=wye bus1=p1ulv7792.2 kV=0.12 Vminpu=0.8 Vmaxpu=1.2 model=1 kW=14.404204781856079 kvar=3.036808033672637 Phases=1 yearly=res_kw_560_pu

New Load.load_p1ulv7793_1 conn=wye bus1=p1ulv7793.1 kV=0.12 Vminpu=0.8 Vmaxpu=1.2 model=1 kW=2.901745080312197 kvar=1.2924395298142213 Phases=1 yearly=res_kw_225_pu

New Load.load_p1ulv7793_2 conn=wye bus1=p1ulv7793.2 kV=0.12 Vminpu=0.8 Vmaxpu=1.2 model=1 kW=2.901745080312197 kvar=1.2924395298142213 Phases=1 yearly=res_kw_225_pu

New Load.load_p1ulv7794_1 conn=wye bus1=p1ulv7794.1 kV=0.12 Vminpu=0.8 Vmaxpu=1.2 model=1 kW=3.4468581914223817 kvar=1.1411197390818253 Phases=1 yearly=res_kw_250_pu

New Load.load_p1ulv7794_2 conn=wye bus1=p1ulv7794.2 kV=0.12 Vminpu=0.8 Vmaxpu=1.2 model=1 kW=3.4468581914223817 kvar=1.1411197390818253 Phases=1 yearly=res_kw_250_pu

New Load.load_p1ulv7795_1 conn=wye bus1=p1ulv7795.1 kV=0.12 Vminpu=0.8 Vmaxpu=1.2 model=1 kW=5.286987923172412 kvar=0.912918656895422 Phases=1 yearly=res_kw_75_pu

New Load.load_p1ulv7795_2 conn=wye bus1=p1ulv7795.2 kV=0.12 Vminpu=0.8 Vmaxpu=1.2 model=1 kW=5.286987923172412 kvar=0.912918656895422 Phases=1 yearly=res_kw_75_pu

New Load.load_p1ulv7796_1 conn=wye bus1=p1ulv7796.1 kV=0.12 Vminpu=0.8 Vmaxpu=1.2 model=1 kW=5.723135606665604 kvar=1.5038194991101048 Phases=1 yearly=res_kw_1228_pu

New Load.load_p1ulv7796_2 conn=wye bus1=p1ulv7796.2 kV=0.12 Vminpu=0.8 Vmaxpu=1.2 model=1 kW=5.723135606665604 kvar=1.5038194991101048 Phases=1 yearly=res_kw_1228_pu

New Load.load_p1ulv7797_1 conn=wye bus1=p1ulv7797.1 kV=0.12 Vminpu=0.8 Vmaxpu=1.2 model=1 kW=7.721615461137303 kvar=1.7536039230317741 Phases=1 yearly=res_kw_1013_pu

New Load.load_p1ulv7797_2 conn=wye bus1=p1ulv7797.2 kV=0.12 Vminpu=0.8 Vmaxpu=1.2 model=1 kW=7.721615461137303 kvar=1.7536039230317741 Phases=1 yearly=res_kw_1013_pu

New Load.load_p1ulv7798_1 conn=wye bus1=p1ulv7798.1 kV=0.12 Vminpu=0.8 Vmaxpu=1.2 model=1 kW=2.916803644387601 kvar=0.11499518252231355 Phases=1 yearly=res_kw_1094_pu

New Load.load_p1ulv7798_2 conn=wye bus1=p1ulv7798.2 kV=0.12 Vminpu=0.8 Vmaxpu=1.2 model=1 kW=2.916803644387601 kvar=0.11499518252231355 Phases=1 yearly=res_kw_1094_pu

New Load.load_p1ulv7799_1 conn=wye bus1=p1ulv7799.1 kV=0.12 Vminpu=0.8 Vmaxpu=1.2 model=1 kW=2.901745080312197 kvar=1.2924395298142213 Phases=1 yearly=res_kw_225_pu

New Load.load_p1ulv7799_2 conn=wye bus1=p1ulv7799.2 kV=0.12 Vminpu=0.8 Vmaxpu=1.2 model=1 kW=2.901745080312197 kvar=1.2924395298142213 Phases=1 yearly=res_kw_225_pu

New Load.load_p1ulv7800_1 conn=wye bus1=p1ulv7800.1 kV=0.12 Vminpu=0.8 Vmaxpu=1.2 model=1 kW=7.721615461137303 kvar=1.7536039230317741 Phases=1 yearly=res_kw_1013_pu

New Load.load_p1ulv7800_2 conn=wye bus1=p1ulv7800.2 kV=0.12 Vminpu=0.8 Vmaxpu=1.2 model=1 kW=7.721615461137303 kvar=1.7536039230317741 Phases=1 yearly=res_kw_1013_pu

New Load.load_p1ulv7801_1 conn=wye bus1=p1ulv7801.1 kV=0.12 Vminpu=0.8 Vmaxpu=1.2 model=1 kW=3.469755020859998 kvar=0.8941520384931253 Phases=1 yearly=res_kw_4_pu

New Load.load_p1ulv7801_2 conn=wye bus1=p1ulv7801.2 kV=0.12 Vminpu=0.8 Vmaxpu=1.2 model=1 kW=3.469755020859998 kvar=0.8941520384931253 Phases=1 yearly=res_kw_4_pu

New Load.load_p1ulv7802_1 conn=wye bus1=p1ulv7802.1 kV=0.12 Vminpu=0.8 Vmaxpu=1.2 model=1 kW=4.792485504367488 kvar=0.7718250753089506 Phases=1 yearly=res_kw_85_pu

New Load.load_p1ulv7802_2 conn=wye bus1=p1ulv7802.2 kV=0.12 Vminpu=0.8 Vmaxpu=1.2 model=1 kW=4.792485504367488 kvar=0.7718250753089506 Phases=1 yearly=res_kw_85_pu

New Load.load_p1ulv7803_1 conn=wye bus1=p1ulv7803.1 kV=0.12 Vminpu=0.8 Vmaxpu=1.2 model=1 kW=6.326714615561071 kvar=1.6676010778457313 Phases=1 yearly=res_kw_7_pu

New Load.load_p1ulv7803_2 conn=wye bus1=p1ulv7803.2 kV=0.12 Vminpu=0.8 Vmaxpu=1.2 model=1 kW=6.326714615561071 kvar=1.6676010778457313 Phases=1 yearly=res_kw_7_pu

New Load.load_p1ulv7804_1 conn=wye bus1=p1ulv7804.1 kV=0.12 Vminpu=0.8 Vmaxpu=1.2 model=1 kW=5.6593015111322105 kvar=1.2761251920573724 Phases=1 yearly=res_kw_324_pu

New Load.load_p1ulv7804_2 conn=wye bus1=p1ulv7804.2 kV=0.12 Vminpu=0.8 Vmaxpu=1.2 model=1 kW=5.6593015111322105 kvar=1.2761251920573724 Phases=1 yearly=res_kw_324_pu

New Load.load_p1ulv7805_1 conn=wye bus1=p1ulv7805.1 kV=0.12 Vminpu=0.8 Vmaxpu=1.2 model=1 kW=4.78815623948431 kvar=1.2110296754961107 Phases=1 yearly=res_kw_842_pu

New Load.load_p1ulv7805_2 conn=wye bus1=p1ulv7805.2 kV=0.12 Vminpu=0.8 Vmaxpu=1.2 model=1 kW=4.78815623948431 kvar=1.2110296754961107 Phases=1 yearly=res_kw_842_pu

New Load.load_p1ulv7806_1 conn=wye bus1=p1ulv7806.1 kV=0.12 Vminpu=0.8 Vmaxpu=1.2 model=1 kW=2.40000228705824 kvar=1.0173787262529668 Phases=1 yearly=res_kw_1205_pu

New Load.load_p1ulv7806_2 conn=wye bus1=p1ulv7806.2 kV=0.12 Vminpu=0.8 Vmaxpu=1.2 model=1 kW=2.40000228705824 kvar=1.0173787262529668 Phases=1 yearly=res_kw_1205_pu

New Load.load_p1ulv7807_1 conn=wye bus1=p1ulv7807.1 kV=0.12 Vminpu=0.8 Vmaxpu=1.2 model=1 kW=3.469755020859998 kvar=0.8941520384931253 Phases=1 yearly=res_kw_4_pu

New Load.load_p1ulv7807_2 conn=wye bus1=p1ulv7807.2 kV=0.12 Vminpu=0.8 Vmaxpu=1.2 model=1 kW=3.469755020859998 kvar=0.8941520384931253 Phases=1 yearly=res_kw_4_pu

New Load.load_p1ulv7808_1 conn=wye bus1=p1ulv7808.1 kV=0.12 Vminpu=0.8 Vmaxpu=1.2 model=1 kW=8.002510293265328 kvar=1.3147667835887125 Phases=1 yearly=res_kw_932_pu

New Load.load_p1ulv7808_2 conn=wye bus1=p1ulv7808.2 kV=0.12 Vminpu=0.8 Vmaxpu=1.2 model=1 kW=8.002510293265328 kvar=1.3147667835887125 Phases=1 yearly=res_kw_932_pu

New Load.load_p1ulv7809_1 conn=wye bus1=p1ulv7809.1 kV=0.12 Vminpu=0.8 Vmaxpu=1.2 model=1 kW=7.088530083600876 kvar=2.6134476319600712 Phases=1 yearly=res_kw_267_pu

New Load.load_p1ulv7809_2 conn=wye bus1=p1ulv7809.2 kV=0.12 Vminpu=0.8 Vmaxpu=1.2 model=1 kW=7.088530083600876 kvar=2.6134476319600712 Phases=1 yearly=res_kw_267_pu

New Load.load_p1ulv7810_1 conn=wye bus1=p1ulv7810.1 kV=0.12 Vminpu=0.8 Vmaxpu=1.2 model=1 kW=5.6593015111322105 kvar=1.2761251920573724 Phases=1 yearly=res_kw_324_pu

New Load.load_p1ulv7810_2 conn=wye bus1=p1ulv7810.2 kV=0.12 Vminpu=0.8 Vmaxpu=1.2 model=1 kW=5.6593015111322105 kvar=1.2761251920573724 Phases=1 yearly=res_kw_324_pu

New Load.load_p1ulv7811_1 conn=wye bus1=p1ulv7811.1 kV=0.12 Vminpu=0.8 Vmaxpu=1.2 model=1 kW=2.9898249364160714 kvar=0.2983164502279761 Phases=1 yearly=res_kw_1070_pu

New Load.load_p1ulv7811_2 conn=wye bus1=p1ulv7811.2 kV=0.12 Vminpu=0.8 Vmaxpu=1.2 model=1 kW=2.9898249364160714 kvar=0.2983164502279761 Phases=1 yearly=res_kw_1070_pu

New Load.load_p1ulv7812_1 conn=wye bus1=p1ulv7812.1 kV=0.12 Vminpu=0.8 Vmaxpu=1.2 model=1 kW=2.40000228705824 kvar=1.0173787262529668 Phases=1 yearly=res_kw_1205_pu

New Load.load_p1ulv7812_2 conn=wye bus1=p1ulv7812.2 kV=0.12 Vminpu=0.8 Vmaxpu=1.2 model=1 kW=2.40000228705824 kvar=1.0173787262529668 Phases=1 yearly=res_kw_1205_pu

New Load.load_p1ulv7813_1 conn=wye bus1=p1ulv7813.1 kV=0.12 Vminpu=0.8 Vmaxpu=1.2 model=1 kW=11.457721527492426 kvar=1.3801854390555242 Phases=1 yearly=res_kw_861_pu

New Load.load_p1ulv7813_2 conn=wye bus1=p1ulv7813.2 kV=0.12 Vminpu=0.8 Vmaxpu=1.2 model=1 kW=11.457721527492426 kvar=1.3801854390555242 Phases=1 yearly=res_kw_861_pu

New Load.load_p1ulv7814_1 conn=wye bus1=p1ulv7814.1 kV=0.12 Vminpu=0.8 Vmaxpu=1.2 model=1 kW=8.241940830746106 kvar=1.2752827350596716 Phases=1 yearly=res_kw_394_pu

New Load.load_p1ulv7814_2 conn=wye bus1=p1ulv7814.2 kV=0.12 Vminpu=0.8 Vmaxpu=1.2 model=1 kW=8.241940830746106 kvar=1.2752827350596716 Phases=1 yearly=res_kw_394_pu

New Load.load_p1ulv7815_1 conn=wye bus1=p1ulv7815.1 kV=0.12 Vminpu=0.8 Vmaxpu=1.2 model=1 kW=4.658663502989286 kvar=1.3388389434895354 Phases=1 yearly=res_kw_182_pu

New Load.load_p1ulv7815_2 conn=wye bus1=p1ulv7815.2 kV=0.12 Vminpu=0.8 Vmaxpu=1.2 model=1 kW=4.658663502989286 kvar=1.3388389434895354 Phases=1 yearly=res_kw_182_pu

New Load.load_p1ulv7816_1 conn=wye bus1=p1ulv7816.1 kV=0.12 Vminpu=0.8 Vmaxpu=1.2 model=1 kW=5.166227040370808 kvar=0.941312930764753 Phases=1 yearly=res_kw_852_pu

New Load.load_p1ulv7816_2 conn=wye bus1=p1ulv7816.2 kV=0.12 Vminpu=0.8 Vmaxpu=1.2 model=1 kW=5.166227040370808 kvar=0.941312930764753 Phases=1 yearly=res_kw_852_pu

New Load.load_p1ulv7817_1 conn=wye bus1=p1ulv7817.1 kV=0.12 Vminpu=0.8 Vmaxpu=1.2 model=1 kW=14.404204781856079 kvar=3.036808033672637 Phases=1 yearly=res_kw_560_pu

New Load.load_p1ulv7817_2 conn=wye bus1=p1ulv7817.2 kV=0.12 Vminpu=0.8 Vmaxpu=1.2 model=1 kW=14.404204781856079 kvar=3.036808033672637 Phases=1 yearly=res_kw_560_pu
