New Load.load_p1ulv1785_1 conn=wye bus1=p1ulv1785.1 kV=0.12 Vminpu=0.8 Vmaxpu=1.2 model=1 kW=5.991917116566147 kvar=1.6692124001399427 Phases=1 yearly=res_kw_314_pu

New Load.load_p1ulv1785_2 conn=wye bus1=p1ulv1785.2 kV=0.12 Vminpu=0.8 Vmaxpu=1.2 model=1 kW=5.991917116566147 kvar=1.6692124001399427 Phases=1 yearly=res_kw_314_pu

New Load.load_p1ulv1786_1 conn=wye bus1=p1ulv1786.1 kV=0.12 Vminpu=0.8 Vmaxpu=1.2 model=1 kW=1.8636614682402992 kvar=0.5015179682387616 Phases=1 yearly=res_kw_532_pu

New Load.load_p1ulv1786_2 conn=wye bus1=p1ulv1786.2 kV=0.12 Vminpu=0.8 Vmaxpu=1.2 model=1 kW=1.8636614682402992 kvar=0.5015179682387616 Phases=1 yearly=res_kw_532_pu

New Load.load_p1ulv1787_1 conn=wye bus1=p1ulv1787.1 kV=0.12 Vminpu=0.8 Vmaxpu=1.2 model=1 kW=7.820072877358693 kvar=1.759853089528969 Phases=1 yearly=res_kw_97_pu

New Load.load_p1ulv1787_2 conn=wye bus1=p1ulv1787.2 kV=0.12 Vminpu=0.8 Vmaxpu=1.2 model=1 kW=7.820072877358693 kvar=1.759853089528969 Phases=1 yearly=res_kw_97_pu

New Load.load_p1ulv1788_1 conn=wye bus1=p1ulv1788.1 kV=0.12 Vminpu=0.8 Vmaxpu=1.2 model=1 kW=3.8748715750127736 kvar=1.5614372175332516 Phases=1 yearly=res_kw_517_pu

New Load.load_p1ulv1788_2 conn=wye bus1=p1ulv1788.2 kV=0.12 Vminpu=0.8 Vmaxpu=1.2 model=1 kW=3.8748715750127736 kvar=1.5614372175332516 Phases=1 yearly=res_kw_517_pu

New Load.load_p1ulv1789_1 conn=wye bus1=p1ulv1789.1 kV=0.12 Vminpu=0.8 Vmaxpu=1.2 model=1 kW=5.772584848285176 kvar=1.3225757839012733 Phases=1 yearly=res_kw_599_pu

New Load.load_p1ulv1789_2 conn=wye bus1=p1ulv1789.2 kV=0.12 Vminpu=0.8 Vmaxpu=1.2 model=1 kW=5.772584848285176 kvar=1.3225757839012733 Phases=1 yearly=res_kw_599_pu

New Load.load_p1ulv1812 conn=wye bus1=p1ulv1812.1.2.3 kV=0.48 Vminpu=0.8 Vmaxpu=1.2 model=1 kW=147.8346199377875 kvar=40.422425754008465 Phases=3 yearly=com_kw_14007_pu

New Load.load_p1ulv1825 conn=wye bus1=p1ulv1825.1.2.3 kV=0.48 Vminpu=0.8 Vmaxpu=1.2 model=1 kW=43.697057708189 kvar=2.2927309271557825 Phases=3 yearly=com_kw_14744_pu

New Load.load_p1ulv1826 conn=wye bus1=p1ulv1826.1.2.3 kV=0.48 Vminpu=0.8 Vmaxpu=1.2 model=1 kW=64.2888791954745 kvar=2.0591667177967894 Phases=3 yearly=com_kw_14388_pu

New Load.load_p1ulv1827_1 conn=wye bus1=p1ulv1827.1 kV=0.12 Vminpu=0.8 Vmaxpu=1.2 model=1 kW=9.28805453265179 kvar=0.33968358420257083 Phases=1 yearly=com_kw_12995_pu

New Load.load_p1ulv1827_2 conn=wye bus1=p1ulv1827.2 kV=0.12 Vminpu=0.8 Vmaxpu=1.2 model=1 kW=9.28805453265179 kvar=0.33968358420257083 Phases=1 yearly=com_kw_12995_pu

New Load.load_p1ulv1830_1 conn=wye bus1=p1ulv1830.1 kV=0.12 Vminpu=0.8 Vmaxpu=1.2 model=1 kW=13.251431311430247 kvar=0.1493407165487586 Phases=1 yearly=com_kw_14976_pu

New Load.load_p1ulv1830_2 conn=wye bus1=p1ulv1830.2 kV=0.12 Vminpu=0.8 Vmaxpu=1.2 model=1 kW=13.251431311430247 kvar=0.1493407165487586 Phases=1 yearly=com_kw_14976_pu

New Load.load_p1ulv1831 conn=wye bus1=p1ulv1831.1.2.3 kV=0.48 Vminpu=0.8 Vmaxpu=1.2 model=1 kW=36.50723669611415 kvar=5.711557870450742 Phases=3 yearly=com_kw_14802_pu

New Load.load_p1ulv1832 conn=wye bus1=p1ulv1832.1.2.3 kV=0.48 Vminpu=0.8 Vmaxpu=1.2 model=1 kW=174.69285410291275 kvar=45.82197168104374 Phases=3 yearly=com_kw_15000_pu

New Load.load_p1ulv1833 conn=wye bus1=p1ulv1833.1.2.3 kV=0.48 Vminpu=0.8 Vmaxpu=1.2 model=1 kW=37.06615996289137 kvar=0.636271427608 Phases=3 yearly=com_kw_14478_pu

New Load.load_p1ulv1834 conn=wye bus1=p1ulv1834.1.2.3 kV=0.48 Vminpu=0.8 Vmaxpu=1.2 model=1 kW=91.75061169357225 kvar=17.489110405047008 Phases=3 yearly=com_kw_13557_pu

New Load.load_p1ulv1835_1 conn=wye bus1=p1ulv1835.1 kV=0.12 Vminpu=0.8 Vmaxpu=1.2 model=1 kW=7.259772519581312 kvar=1.3210086815250959 Phases=1 yearly=res_kw_128_pu

New Load.load_p1ulv1835_2 conn=wye bus1=p1ulv1835.2 kV=0.12 Vminpu=0.8 Vmaxpu=1.2 model=1 kW=7.259772519581312 kvar=1.3210086815250959 Phases=1 yearly=res_kw_128_pu

New Load.load_p1ulv1836_1 conn=wye bus1=p1ulv1836.1 kV=0.12 Vminpu=0.8 Vmaxpu=1.2 model=1 kW=6.727252203449795 kvar=1.9067277455995406 Phases=1 yearly=res_kw_822_pu

New Load.load_p1ulv1836_2 conn=wye bus1=p1ulv1836.2 kV=0.12 Vminpu=0.8 Vmaxpu=1.2 model=1 kW=6.727252203449795 kvar=1.9067277455995406 Phases=1 yearly=res_kw_822_pu

New Load.load_p1ulv1837_1 conn=wye bus1=p1ulv1837.1 kV=0.12 Vminpu=0.8 Vmaxpu=1.2 model=1 kW=4.746269311492783 kvar=1.3210751032938461 Phases=1 yearly=res_kw_1080_pu

New Load.load_p1ulv1837_2 conn=wye bus1=p1ulv1837.2 kV=0.12 Vminpu=0.8 Vmaxpu=1.2 model=1 kW=4.746269311492783 kvar=1.3210751032938461 Phases=1 yearly=res_kw_1080_pu

New Load.load_p1ulv1838_1 conn=wye bus1=p1ulv1838.1 kV=0.12 Vminpu=0.8 Vmaxpu=1.2 model=1 kW=7.088530083600876 kvar=2.6134476319600712 Phases=1 yearly=res_kw_267_pu

New Load.load_p1ulv1838_2 conn=wye bus1=p1ulv1838.2 kV=0.12 Vminpu=0.8 Vmaxpu=1.2 model=1 kW=7.088530083600876 kvar=2.6134476319600712 Phases=1 yearly=res_kw_267_pu

New Load.load_p1ulv1839_1 conn=wye bus1=p1ulv1839.1 kV=0.12 Vminpu=0.8 Vmaxpu=1.2 model=1 kW=2.6241521841182514 kvar=0.8429304779950015 Phases=1 yearly=res_kw_33_pu

New Load.load_p1ulv1839_2 conn=wye bus1=p1ulv1839.2 kV=0.12 Vminpu=0.8 Vmaxpu=1.2 model=1 kW=2.6241521841182514 kvar=0.8429304779950015 Phases=1 yearly=res_kw_33_pu

New Load.load_p1ulv1840_1 conn=wye bus1=p1ulv1840.1 kV=0.12 Vminpu=0.8 Vmaxpu=1.2 model=1 kW=6.251204132654125 kvar=1.5952530188558731 Phases=1 yearly=res_kw_1248_pu

New Load.load_p1ulv1840_2 conn=wye bus1=p1ulv1840.2 kV=0.12 Vminpu=0.8 Vmaxpu=1.2 model=1 kW=6.251204132654125 kvar=1.5952530188558731 Phases=1 yearly=res_kw_1248_pu

New Load.load_p1ulv1841_1 conn=wye bus1=p1ulv1841.1 kV=0.12 Vminpu=0.8 Vmaxpu=1.2 model=1 kW=4.889402611994926 kvar=1.0559288347164948 Phases=1 yearly=res_kw_1160_pu

New Load.load_p1ulv1841_2 conn=wye bus1=p1ulv1841.2 kV=0.12 Vminpu=0.8 Vmaxpu=1.2 model=1 kW=4.889402611994926 kvar=1.0559288347164948 Phases=1 yearly=res_kw_1160_pu

New Load.load_p1ulv1842 conn=wye bus1=p1ulv1842.1.2.3 kV=0.48 Vminpu=0.8 Vmaxpu=1.2 model=1 kW=92.87253696383732 kvar=27.440883553047083 Phases=3 yearly=com_kw_15066_pu

New Load.load_p1ulv1843_1 conn=wye bus1=p1ulv1843.1 kV=0.12 Vminpu=0.8 Vmaxpu=1.2 model=1 kW=6.352673335739773 kvar=1.2718370911024361 Phases=1 yearly=res_kw_148_pu

New Load.load_p1ulv1843_2 conn=wye bus1=p1ulv1843.2 kV=0.12 Vminpu=0.8 Vmaxpu=1.2 model=1 kW=6.352673335739773 kvar=1.2718370911024361 Phases=1 yearly=res_kw_148_pu

New Load.load_p1ulv1844_1 conn=wye bus1=p1ulv1844.1 kV=0.12 Vminpu=0.8 Vmaxpu=1.2 model=1 kW=4.889402611994926 kvar=1.0559288347164948 Phases=1 yearly=res_kw_1160_pu

New Load.load_p1ulv1844_2 conn=wye bus1=p1ulv1844.2 kV=0.12 Vminpu=0.8 Vmaxpu=1.2 model=1 kW=4.889402611994926 kvar=1.0559288347164948 Phases=1 yearly=res_kw_1160_pu

New Load.load_p1ulv1845_1 conn=wye bus1=p1ulv1845.1 kV=0.12 Vminpu=0.8 Vmaxpu=1.2 model=1 kW=2.623267981089487 kvar=1.212519304398851 Phases=1 yearly=res_kw_452_pu

New Load.load_p1ulv1845_2 conn=wye bus1=p1ulv1845.2 kV=0.12 Vminpu=0.8 Vmaxpu=1.2 model=1 kW=2.623267981089487 kvar=1.212519304398851 Phases=1 yearly=res_kw_452_pu

New Load.load_p1ulv1846_1 conn=wye bus1=p1ulv1846.1 kV=0.12 Vminpu=0.8 Vmaxpu=1.2 model=1 kW=4.2307467678291735 kvar=1.0467542494319235 Phases=1 yearly=res_kw_334_pu

New Load.load_p1ulv1846_2 conn=wye bus1=p1ulv1846.2 kV=0.12 Vminpu=0.8 Vmaxpu=1.2 model=1 kW=4.2307467678291735 kvar=1.0467542494319235 Phases=1 yearly=res_kw_334_pu

New Load.load_p1ulv1847_1 conn=wye bus1=p1ulv1847.1 kV=0.12 Vminpu=0.8 Vmaxpu=1.2 model=1 kW=4.78815623948431 kvar=1.2110296754961107 Phases=1 yearly=res_kw_842_pu

New Load.load_p1ulv1847_2 conn=wye bus1=p1ulv1847.2 kV=0.12 Vminpu=0.8 Vmaxpu=1.2 model=1 kW=4.78815623948431 kvar=1.2110296754961107 Phases=1 yearly=res_kw_842_pu

New Load.load_p1ulv1848_1 conn=wye bus1=p1ulv1848.1 kV=0.12 Vminpu=0.8 Vmaxpu=1.2 model=1 kW=2.605021030189827 kvar=1.0007509371876184 Phases=1 yearly=res_kw_24_pu

New Load.load_p1ulv1848_2 conn=wye bus1=p1ulv1848.2 kV=0.12 Vminpu=0.8 Vmaxpu=1.2 model=1 kW=2.605021030189827 kvar=1.0007509371876184 Phases=1 yearly=res_kw_24_pu

New Load.load_p1ulv1849_1 conn=wye bus1=p1ulv1849.1 kV=0.12 Vminpu=0.8 Vmaxpu=1.2 model=1 kW=2.6241521841182514 kvar=0.8429304779950015 Phases=1 yearly=res_kw_33_pu

New Load.load_p1ulv1849_2 conn=wye bus1=p1ulv1849.2 kV=0.12 Vminpu=0.8 Vmaxpu=1.2 model=1 kW=2.6241521841182514 kvar=0.8429304779950015 Phases=1 yearly=res_kw_33_pu

New Load.load_p1ulv1850_1 conn=wye bus1=p1ulv1850.1 kV=0.12 Vminpu=0.8 Vmaxpu=1.2 model=1 kW=3.0721844660900577 kvar=0.7060482494440881 Phases=1 yearly=com_kw_13303_pu

New Load.load_p1ulv1850_2 conn=wye bus1=p1ulv1850.2 kV=0.12 Vminpu=0.8 Vmaxpu=1.2 model=1 kW=3.0721844660900577 kvar=0.7060482494440881 Phases=1 yearly=com_kw_13303_pu

New Load.load_p1ulv1852_1 conn=wye bus1=p1ulv1852.1 kV=0.12 Vminpu=0.8 Vmaxpu=1.2 model=1 kW=1.8914832317680952 kvar=0.4701288429802831 Phases=1 yearly=com_kw_13018_pu

New Load.load_p1ulv1852_2 conn=wye bus1=p1ulv1852.2 kV=0.12 Vminpu=0.8 Vmaxpu=1.2 model=1 kW=1.8914832317680952 kvar=0.4701288429802831 Phases=1 yearly=com_kw_13018_pu

New Load.load_p1ulv1853_1 conn=wye bus1=p1ulv1853.1 kV=0.12 Vminpu=0.8 Vmaxpu=1.2 model=1 kW=5.991917116566147 kvar=1.6692124001399427 Phases=1 yearly=res_kw_314_pu

New Load.load_p1ulv1853_2 conn=wye bus1=p1ulv1853.2 kV=0.12 Vminpu=0.8 Vmaxpu=1.2 model=1 kW=5.991917116566147 kvar=1.6692124001399427 Phases=1 yearly=res_kw_314_pu

New Load.load_p1ulv1855_1 conn=wye bus1=p1ulv1855.1 kV=0.12 Vminpu=0.8 Vmaxpu=1.2 model=1 kW=6.136100367362728 kvar=1.4521187609701354 Phases=1 yearly=res_kw_362_pu

New Load.load_p1ulv1855_2 conn=wye bus1=p1ulv1855.2 kV=0.12 Vminpu=0.8 Vmaxpu=1.2 model=1 kW=6.136100367362728 kvar=1.4521187609701354 Phases=1 yearly=res_kw_362_pu

New Load.load_p1ulv1857_1 conn=wye bus1=p1ulv1857.1 kV=0.12 Vminpu=0.8 Vmaxpu=1.2 model=1 kW=4.78815623948431 kvar=1.2110296754961107 Phases=1 yearly=res_kw_842_pu

New Load.load_p1ulv1857_2 conn=wye bus1=p1ulv1857.2 kV=0.12 Vminpu=0.8 Vmaxpu=1.2 model=1 kW=4.78815623948431 kvar=1.2110296754961107 Phases=1 yearly=res_kw_842_pu

New Load.load_p1ulv1858_1 conn=wye bus1=p1ulv1858.1 kV=0.12 Vminpu=0.8 Vmaxpu=1.2 model=1 kW=3.514038245319737 kvar=0.28269583311839436 Phases=1 yearly=com_kw_14842_pu

New Load.load_p1ulv1858_2 conn=wye bus1=p1ulv1858.2 kV=0.12 Vminpu=0.8 Vmaxpu=1.2 model=1 kW=3.514038245319737 kvar=0.28269583311839436 Phases=1 yearly=com_kw_14842_pu

New Load.load_p1ulv1859_1 conn=wye bus1=p1ulv1859.1 kV=0.12 Vminpu=0.8 Vmaxpu=1.2 model=1 kW=3.514038245319737 kvar=0.28269583311839436 Phases=1 yearly=com_kw_14842_pu

New Load.load_p1ulv1859_2 conn=wye bus1=p1ulv1859.2 kV=0.12 Vminpu=0.8 Vmaxpu=1.2 model=1 kW=3.514038245319737 kvar=0.28269583311839436 Phases=1 yearly=com_kw_14842_pu

New Load.load_p1ulv1860_1 conn=wye bus1=p1ulv1860.1 kV=0.12 Vminpu=0.8 Vmaxpu=1.2 model=1 kW=3.013000258801837 kvar=0.6644912672412583 Phases=1 yearly=com_kw_13887_pu

New Load.load_p1ulv1860_2 conn=wye bus1=p1ulv1860.2 kV=0.12 Vminpu=0.8 Vmaxpu=1.2 model=1 kW=3.013000258801837 kvar=0.6644912672412583 Phases=1 yearly=com_kw_13887_pu

New Load.load_p1ulv1861_1 conn=wye bus1=p1ulv1861.1 kV=0.12 Vminpu=0.8 Vmaxpu=1.2 model=1 kW=2.134373343667251 kvar=0.5986590434975299 Phases=1 yearly=com_kw_14612_pu

New Load.load_p1ulv1861_2 conn=wye bus1=p1ulv1861.2 kV=0.12 Vminpu=0.8 Vmaxpu=1.2 model=1 kW=2.134373343667251 kvar=0.5986590434975299 Phases=1 yearly=com_kw_14612_pu

New Load.load_p1ulv1862_1 conn=wye bus1=p1ulv1862.1 kV=0.12 Vminpu=0.8 Vmaxpu=1.2 model=1 kW=7.334533919995013 kvar=2.0281330140586955 Phases=1 yearly=com_kw_13747_pu

New Load.load_p1ulv1862_2 conn=wye bus1=p1ulv1862.2 kV=0.12 Vminpu=0.8 Vmaxpu=1.2 model=1 kW=7.334533919995013 kvar=2.0281330140586955 Phases=1 yearly=com_kw_13747_pu

New Load.load_p1ulv1863_1 conn=wye bus1=p1ulv1863.1 kV=0.12 Vminpu=0.8 Vmaxpu=1.2 model=1 kW=5.286987923172412 kvar=0.912918656895422 Phases=1 yearly=res_kw_75_pu

New Load.load_p1ulv1863_2 conn=wye bus1=p1ulv1863.2 kV=0.12 Vminpu=0.8 Vmaxpu=1.2 model=1 kW=5.286987923172412 kvar=0.912918656895422 Phases=1 yearly=res_kw_75_pu

New Load.load_p1ulv1864_1 conn=wye bus1=p1ulv1864.1 kV=0.12 Vminpu=0.8 Vmaxpu=1.2 model=1 kW=3.6844020253442458 kvar=1.4451491397155931 Phases=1 yearly=res_kw_1258_pu

New Load.load_p1ulv1864_2 conn=wye bus1=p1ulv1864.2 kV=0.12 Vminpu=0.8 Vmaxpu=1.2 model=1 kW=3.6844020253442458 kvar=1.4451491397155931 Phases=1 yearly=res_kw_1258_pu

New Load.load_p1ulv1865_1 conn=wye bus1=p1ulv1865.1 kV=0.12 Vminpu=0.8 Vmaxpu=1.2 model=1 kW=3.469755020859998 kvar=0.8941520384931253 Phases=1 yearly=res_kw_4_pu

New Load.load_p1ulv1865_2 conn=wye bus1=p1ulv1865.2 kV=0.12 Vminpu=0.8 Vmaxpu=1.2 model=1 kW=3.469755020859998 kvar=0.8941520384931253 Phases=1 yearly=res_kw_4_pu

New Load.load_p1ulv1866_1 conn=wye bus1=p1ulv1866.1 kV=0.12 Vminpu=0.8 Vmaxpu=1.2 model=1 kW=7.04256695844029 kvar=1.659740351203588 Phases=1 yearly=res_kw_707_pu

New Load.load_p1ulv1866_2 conn=wye bus1=p1ulv1866.2 kV=0.12 Vminpu=0.8 Vmaxpu=1.2 model=1 kW=7.04256695844029 kvar=1.659740351203588 Phases=1 yearly=res_kw_707_pu

New Load.load_p1ulv1867_1 conn=wye bus1=p1ulv1867.1 kV=0.12 Vminpu=0.8 Vmaxpu=1.2 model=1 kW=5.947053638705014 kvar=1.2332751328813323 Phases=1 yearly=res_kw_245_pu

New Load.load_p1ulv1867_2 conn=wye bus1=p1ulv1867.2 kV=0.12 Vminpu=0.8 Vmaxpu=1.2 model=1 kW=5.947053638705014 kvar=1.2332751328813323 Phases=1 yearly=res_kw_245_pu

New Load.load_p1ulv1868 conn=wye bus1=p1ulv1868.1.2.3 kV=0.48 Vminpu=0.8 Vmaxpu=1.2 model=1 kW=40.942981916270845 kvar=12.738632234961589 Phases=3 yearly=com_kw_14701_pu

New Load.load_p1ulv1869_1 conn=wye bus1=p1ulv1869.1 kV=0.12 Vminpu=0.8 Vmaxpu=1.2 model=1 kW=4.8375139025721365 kvar=0.35349025429812664 Phases=1 yearly=com_kw_13636_pu

New Load.load_p1ulv1869_2 conn=wye bus1=p1ulv1869.2 kV=0.12 Vminpu=0.8 Vmaxpu=1.2 model=1 kW=4.8375139025721365 kvar=0.35349025429812664 Phases=1 yearly=com_kw_13636_pu

New Load.load_p1ulv1870_1 conn=wye bus1=p1ulv1870.1 kV=0.12 Vminpu=0.8 Vmaxpu=1.2 model=1 kW=2.6241521841182514 kvar=0.8429304779950015 Phases=1 yearly=res_kw_33_pu

New Load.load_p1ulv1870_2 conn=wye bus1=p1ulv1870.2 kV=0.12 Vminpu=0.8 Vmaxpu=1.2 model=1 kW=2.6241521841182514 kvar=0.8429304779950015 Phases=1 yearly=res_kw_33_pu

New Load.load_p1ulv1871_1 conn=wye bus1=p1ulv1871.1 kV=0.12 Vminpu=0.8 Vmaxpu=1.2 model=1 kW=3.9060227283575606 kvar=0.8578020352767629 Phases=1 yearly=res_kw_278_pu

New Load.load_p1ulv1871_2 conn=wye bus1=p1ulv1871.2 kV=0.12 Vminpu=0.8 Vmaxpu=1.2 model=1 kW=3.9060227283575606 kvar=0.8578020352767629 Phases=1 yearly=res_kw_278_pu

New Load.load_p1ulv1872_1 conn=wye bus1=p1ulv1872.1 kV=0.12 Vminpu=0.8 Vmaxpu=1.2 model=1 kW=4.4719654544990375 kvar=1.0992469987144322 Phases=1 yearly=res_kw_1157_pu

New Load.load_p1ulv1872_2 conn=wye bus1=p1ulv1872.2 kV=0.12 Vminpu=0.8 Vmaxpu=1.2 model=1 kW=4.4719654544990375 kvar=1.0992469987144322 Phases=1 yearly=res_kw_1157_pu

New Load.load_p1ulv1873_1 conn=wye bus1=p1ulv1873.1 kV=0.12 Vminpu=0.8 Vmaxpu=1.2 model=1 kW=3.8748715750127736 kvar=1.5614372175332516 Phases=1 yearly=res_kw_517_pu

New Load.load_p1ulv1873_2 conn=wye bus1=p1ulv1873.2 kV=0.12 Vminpu=0.8 Vmaxpu=1.2 model=1 kW=3.8748715750127736 kvar=1.5614372175332516 Phases=1 yearly=res_kw_517_pu

New Load.load_p1umv3 conn=wye bus1=p1umv3.1.2.3 kV=12.47 Vminpu=0.8 Vmaxpu=1.2 model=1 kW=501.4166135095707 kvar=84.66172832325124 Phases=3 yearly=com_kw_13965_pu

New Load.load_p1ulv1876 conn=wye bus1=p1ulv1876.1.2.3 kV=0.48 Vminpu=0.8 Vmaxpu=1.2 model=1 kW=61.26431445992834 kvar=1.282997230265695 Phases=3 yearly=com_kw_13527_pu

New Load.load_p1ulv1877_1 conn=wye bus1=p1ulv1877.1 kV=0.12 Vminpu=0.8 Vmaxpu=1.2 model=1 kW=3.3641909207712115 kvar=0.9284266244461494 Phases=1 yearly=res_kw_523_pu

New Load.load_p1ulv1877_2 conn=wye bus1=p1ulv1877.2 kV=0.12 Vminpu=0.8 Vmaxpu=1.2 model=1 kW=3.3641909207712115 kvar=0.9284266244461494 Phases=1 yearly=res_kw_523_pu

New Load.load_p1ulv1878_1 conn=wye bus1=p1ulv1878.1 kV=0.12 Vminpu=0.8 Vmaxpu=1.2 model=1 kW=3.3641909207712115 kvar=0.9284266244461494 Phases=1 yearly=res_kw_523_pu

New Load.load_p1ulv1878_2 conn=wye bus1=p1ulv1878.2 kV=0.12 Vminpu=0.8 Vmaxpu=1.2 model=1 kW=3.3641909207712115 kvar=0.9284266244461494 Phases=1 yearly=res_kw_523_pu

New Load.load_p1ulv1879_1 conn=wye bus1=p1ulv1879.1 kV=0.12 Vminpu=0.8 Vmaxpu=1.2 model=1 kW=6.897997484512368 kvar=1.5073573946072503 Phases=1 yearly=res_kw_40_pu

New Load.load_p1ulv1879_2 conn=wye bus1=p1ulv1879.2 kV=0.12 Vminpu=0.8 Vmaxpu=1.2 model=1 kW=6.897997484512368 kvar=1.5073573946072503 Phases=1 yearly=res_kw_40_pu

New Load.load_p1ulv1880_1 conn=wye bus1=p1ulv1880.1 kV=0.12 Vminpu=0.8 Vmaxpu=1.2 model=1 kW=3.6844020253442458 kvar=1.4451491397155931 Phases=1 yearly=res_kw_1258_pu

New Load.load_p1ulv1880_2 conn=wye bus1=p1ulv1880.2 kV=0.12 Vminpu=0.8 Vmaxpu=1.2 model=1 kW=3.6844020253442458 kvar=1.4451491397155931 Phases=1 yearly=res_kw_1258_pu

New Load.load_p1ulv1881_1 conn=wye bus1=p1ulv1881.1 kV=0.12 Vminpu=0.8 Vmaxpu=1.2 model=1 kW=4.78815623948431 kvar=1.2110296754961107 Phases=1 yearly=res_kw_842_pu

New Load.load_p1ulv1881_2 conn=wye bus1=p1ulv1881.2 kV=0.12 Vminpu=0.8 Vmaxpu=1.2 model=1 kW=4.78815623948431 kvar=1.2110296754961107 Phases=1 yearly=res_kw_842_pu

New Load.load_p1ulv1882_1 conn=wye bus1=p1ulv1882.1 kV=0.12 Vminpu=0.8 Vmaxpu=1.2 model=1 kW=4.4719654544990375 kvar=1.0992469987144322 Phases=1 yearly=res_kw_1157_pu

New Load.load_p1ulv1882_2 conn=wye bus1=p1ulv1882.2 kV=0.12 Vminpu=0.8 Vmaxpu=1.2 model=1 kW=4.4719654544990375 kvar=1.0992469987144322 Phases=1 yearly=res_kw_1157_pu

New Load.load_p1ulv1883_1 conn=wye bus1=p1ulv1883.1 kV=0.12 Vminpu=0.8 Vmaxpu=1.2 model=1 kW=4.47171304939181 kvar=1.1676103385976955 Phases=1 yearly=res_kw_627_pu

New Load.load_p1ulv1883_2 conn=wye bus1=p1ulv1883.2 kV=0.12 Vminpu=0.8 Vmaxpu=1.2 model=1 kW=4.47171304939181 kvar=1.1676103385976955 Phases=1 yearly=res_kw_627_pu

New Load.load_p1ulv1884_1 conn=wye bus1=p1ulv1884.1 kV=0.12 Vminpu=0.8 Vmaxpu=1.2 model=1 kW=7.820072877358693 kvar=1.759853089528969 Phases=1 yearly=res_kw_97_pu

New Load.load_p1ulv1884_2 conn=wye bus1=p1ulv1884.2 kV=0.12 Vminpu=0.8 Vmaxpu=1.2 model=1 kW=7.820072877358693 kvar=1.759853089528969 Phases=1 yearly=res_kw_97_pu

New Load.load_p1ulv1885_1 conn=wye bus1=p1ulv1885.1 kV=0.12 Vminpu=0.8 Vmaxpu=1.2 model=1 kW=9.591249211904968 kvar=2.0347748075499026 Phases=1 yearly=res_kw_319_pu

New Load.load_p1ulv1885_2 conn=wye bus1=p1ulv1885.2 kV=0.12 Vminpu=0.8 Vmaxpu=1.2 model=1 kW=9.591249211904968 kvar=2.0347748075499026 Phases=1 yearly=res_kw_319_pu

New Load.load_p1ulv1886_1 conn=wye bus1=p1ulv1886.1 kV=0.12 Vminpu=0.8 Vmaxpu=1.2 model=1 kW=2.658027342573646 kvar=0.9113625924854422 Phases=1 yearly=res_kw_1105_pu

New Load.load_p1ulv1886_2 conn=wye bus1=p1ulv1886.2 kV=0.12 Vminpu=0.8 Vmaxpu=1.2 model=1 kW=2.658027342573646 kvar=0.9113625924854422 Phases=1 yearly=res_kw_1105_pu

New Load.load_p1ulv1887_1 conn=wye bus1=p1ulv1887.1 kV=0.12 Vminpu=0.8 Vmaxpu=1.2 model=1 kW=2.3059349596588534 kvar=0.32635790607535387 Phases=1 yearly=res_kw_996_pu

New Load.load_p1ulv1887_2 conn=wye bus1=p1ulv1887.2 kV=0.12 Vminpu=0.8 Vmaxpu=1.2 model=1 kW=2.3059349596588534 kvar=0.32635790607535387 Phases=1 yearly=res_kw_996_pu

New Load.load_p1ulv1888_1 conn=wye bus1=p1ulv1888.1 kV=0.12 Vminpu=0.8 Vmaxpu=1.2 model=1 kW=5.286987923172412 kvar=0.912918656895422 Phases=1 yearly=res_kw_75_pu

New Load.load_p1ulv1888_2 conn=wye bus1=p1ulv1888.2 kV=0.12 Vminpu=0.8 Vmaxpu=1.2 model=1 kW=5.286987923172412 kvar=0.912918656895422 Phases=1 yearly=res_kw_75_pu

New Load.load_p1ulv1889_1 conn=wye bus1=p1ulv1889.1 kV=0.12 Vminpu=0.8 Vmaxpu=1.2 model=1 kW=4.817618468644212 kvar=1.1350426223715635 Phases=1 yearly=res_kw_843_pu

New Load.load_p1ulv1889_2 conn=wye bus1=p1ulv1889.2 kV=0.12 Vminpu=0.8 Vmaxpu=1.2 model=1 kW=4.817618468644212 kvar=1.1350426223715635 Phases=1 yearly=res_kw_843_pu

New Load.load_p1ulv1890_1 conn=wye bus1=p1ulv1890.1 kV=0.12 Vminpu=0.8 Vmaxpu=1.2 model=1 kW=3.472541999699669 kvar=0.6554351791829548 Phases=1 yearly=res_kw_1054_pu

New Load.load_p1ulv1890_2 conn=wye bus1=p1ulv1890.2 kV=0.12 Vminpu=0.8 Vmaxpu=1.2 model=1 kW=3.472541999699669 kvar=0.6554351791829548 Phases=1 yearly=res_kw_1054_pu

New Load.load_p1ulv1891_1 conn=wye bus1=p1ulv1891.1 kV=0.12 Vminpu=0.8 Vmaxpu=1.2 model=1 kW=2.916803644387601 kvar=0.11499518252231355 Phases=1 yearly=res_kw_1094_pu

New Load.load_p1ulv1891_2 conn=wye bus1=p1ulv1891.2 kV=0.12 Vminpu=0.8 Vmaxpu=1.2 model=1 kW=2.916803644387601 kvar=0.11499518252231355 Phases=1 yearly=res_kw_1094_pu

New Load.load_p1ulv1892_1 conn=wye bus1=p1ulv1892.1 kV=0.12 Vminpu=0.8 Vmaxpu=1.2 model=1 kW=3.8748715750127736 kvar=1.5614372175332516 Phases=1 yearly=res_kw_517_pu

New Load.load_p1ulv1892_2 conn=wye bus1=p1ulv1892.2 kV=0.12 Vminpu=0.8 Vmaxpu=1.2 model=1 kW=3.8748715750127736 kvar=1.5614372175332516 Phases=1 yearly=res_kw_517_pu

New Load.load_p1ulv1893_1 conn=wye bus1=p1ulv1893.1 kV=0.12 Vminpu=0.8 Vmaxpu=1.2 model=1 kW=4.760442075087689 kvar=1.0766161551105315 Phases=1 yearly=res_kw_807_pu

New Load.load_p1ulv1893_2 conn=wye bus1=p1ulv1893.2 kV=0.12 Vminpu=0.8 Vmaxpu=1.2 model=1 kW=4.760442075087689 kvar=1.0766161551105315 Phases=1 yearly=res_kw_807_pu

New Load.load_p1ulv3005_1 conn=wye bus1=p1ulv3005.1 kV=0.12 Vminpu=0.8 Vmaxpu=1.2 model=1 kW=3.0502193323758338 kvar=0.7068547525403183 Phases=1 yearly=res_kw_407_pu

New Load.load_p1ulv3005_2 conn=wye bus1=p1ulv3005.2 kV=0.12 Vminpu=0.8 Vmaxpu=1.2 model=1 kW=3.0502193323758338 kvar=0.7068547525403183 Phases=1 yearly=res_kw_407_pu

New Load.load_p1ulv3013_1 conn=wye bus1=p1ulv3013.1 kV=0.12 Vminpu=0.8 Vmaxpu=1.2 model=1 kW=2.1376631749204993 kvar=0.6218033466021168 Phases=1 yearly=res_kw_93_pu

New Load.load_p1ulv3013_2 conn=wye bus1=p1ulv3013.2 kV=0.12 Vminpu=0.8 Vmaxpu=1.2 model=1 kW=2.1376631749204993 kvar=0.6218033466021168 Phases=1 yearly=res_kw_93_pu

New Load.load_p1ulv3014_1 conn=wye bus1=p1ulv3014.1 kV=0.12 Vminpu=0.8 Vmaxpu=1.2 model=1 kW=7.088530083600876 kvar=2.6134476319600712 Phases=1 yearly=res_kw_267_pu

New Load.load_p1ulv3014_2 conn=wye bus1=p1ulv3014.2 kV=0.12 Vminpu=0.8 Vmaxpu=1.2 model=1 kW=7.088530083600876 kvar=2.6134476319600712 Phases=1 yearly=res_kw_267_pu

New Load.load_p1ulv3015_1 conn=wye bus1=p1ulv3015.1 kV=0.12 Vminpu=0.8 Vmaxpu=1.2 model=1 kW=3.9060227283575606 kvar=0.8578020352767629 Phases=1 yearly=res_kw_278_pu

New Load.load_p1ulv3015_2 conn=wye bus1=p1ulv3015.2 kV=0.12 Vminpu=0.8 Vmaxpu=1.2 model=1 kW=3.9060227283575606 kvar=0.8578020352767629 Phases=1 yearly=res_kw_278_pu

New Load.load_p1ulv3018_1 conn=wye bus1=p1ulv3018.1 kV=0.12 Vminpu=0.8 Vmaxpu=1.2 model=1 kW=4.295703971004243 kvar=1.5592692759891595 Phases=1 yearly=res_kw_282_pu

New Load.load_p1ulv3018_2 conn=wye bus1=p1ulv3018.2 kV=0.12 Vminpu=0.8 Vmaxpu=1.2 model=1 kW=4.295703971004243 kvar=1.5592692759891595 Phases=1 yearly=res_kw_282_pu

New Load.load_p1ulv3020_1 conn=wye bus1=p1ulv3020.1 kV=0.12 Vminpu=0.8 Vmaxpu=1.2 model=1 kW=5.286987923172412 kvar=0.912918656895422 Phases=1 yearly=res_kw_75_pu

New Load.load_p1ulv3020_2 conn=wye bus1=p1ulv3020.2 kV=0.12 Vminpu=0.8 Vmaxpu=1.2 model=1 kW=5.286987923172412 kvar=0.912918656895422 Phases=1 yearly=res_kw_75_pu

New Load.load_p1ulv3022_1 conn=wye bus1=p1ulv3022.1 kV=0.12 Vminpu=0.8 Vmaxpu=1.2 model=1 kW=2.47170658682663 kvar=0.5373197382437959 Phases=1 yearly=res_kw_39_pu

New Load.load_p1ulv3022_2 conn=wye bus1=p1ulv3022.2 kV=0.12 Vminpu=0.8 Vmaxpu=1.2 model=1 kW=2.47170658682663 kvar=0.5373197382437959 Phases=1 yearly=res_kw_39_pu

New Load.load_p1ulv3025_1 conn=wye bus1=p1ulv3025.1 kV=0.12 Vminpu=0.8 Vmaxpu=1.2 model=1 kW=5.6593015111322105 kvar=1.2761251920573724 Phases=1 yearly=res_kw_324_pu

New Load.load_p1ulv3025_2 conn=wye bus1=p1ulv3025.2 kV=0.12 Vminpu=0.8 Vmaxpu=1.2 model=1 kW=5.6593015111322105 kvar=1.2761251920573724 Phases=1 yearly=res_kw_324_pu

New Load.load_p1ulv3026_1 conn=wye bus1=p1ulv3026.1 kV=0.12 Vminpu=0.8 Vmaxpu=1.2 model=1 kW=8.020736002000627 kvar=0.8077597125403054 Phases=1 yearly=res_kw_411_pu

New Load.load_p1ulv3026_2 conn=wye bus1=p1ulv3026.2 kV=0.12 Vminpu=0.8 Vmaxpu=1.2 model=1 kW=8.020736002000627 kvar=0.8077597125403054 Phases=1 yearly=res_kw_411_pu

New Load.load_p1ulv3027_1 conn=wye bus1=p1ulv3027.1 kV=0.12 Vminpu=0.8 Vmaxpu=1.2 model=1 kW=2.9178485115923896 kvar=1.0715119122844614 Phases=1 yearly=res_kw_1149_pu

New Load.load_p1ulv3027_2 conn=wye bus1=p1ulv3027.2 kV=0.12 Vminpu=0.8 Vmaxpu=1.2 model=1 kW=2.9178485115923896 kvar=1.0715119122844614 Phases=1 yearly=res_kw_1149_pu

New Load.load_p1ulv3028_1 conn=wye bus1=p1ulv3028.1 kV=0.12 Vminpu=0.8 Vmaxpu=1.2 model=1 kW=5.286987923172412 kvar=0.912918656895422 Phases=1 yearly=res_kw_75_pu

New Load.load_p1ulv3028_2 conn=wye bus1=p1ulv3028.2 kV=0.12 Vminpu=0.8 Vmaxpu=1.2 model=1 kW=5.286987923172412 kvar=0.912918656895422 Phases=1 yearly=res_kw_75_pu

New Load.load_p1ulv3029_1 conn=wye bus1=p1ulv3029.1 kV=0.12 Vminpu=0.8 Vmaxpu=1.2 model=1 kW=6.294621884355657 kvar=1.2961288323966025 Phases=1 yearly=res_kw_689_pu

New Load.load_p1ulv3029_2 conn=wye bus1=p1ulv3029.2 kV=0.12 Vminpu=0.8 Vmaxpu=1.2 model=1 kW=6.294621884355657 kvar=1.2961288323966025 Phases=1 yearly=res_kw_689_pu

New Load.load_p1ulv3030_1 conn=wye bus1=p1ulv3030.1 kV=0.12 Vminpu=0.8 Vmaxpu=1.2 model=1 kW=6.484825325204597 kvar=1.6440419394084307 Phases=1 yearly=res_kw_1115_pu

New Load.load_p1ulv3030_2 conn=wye bus1=p1ulv3030.2 kV=0.12 Vminpu=0.8 Vmaxpu=1.2 model=1 kW=6.484825325204597 kvar=1.6440419394084307 Phases=1 yearly=res_kw_1115_pu

New Load.load_p1ulv3031_1 conn=wye bus1=p1ulv3031.1 kV=0.12 Vminpu=0.8 Vmaxpu=1.2 model=1 kW=9.666699253995569 kvar=2.090221480167897 Phases=1 yearly=res_kw_46_pu

New Load.load_p1ulv3031_2 conn=wye bus1=p1ulv3031.2 kV=0.12 Vminpu=0.8 Vmaxpu=1.2 model=1 kW=9.666699253995569 kvar=2.090221480167897 Phases=1 yearly=res_kw_46_pu

New Load.load_p1ulv3032_1 conn=wye bus1=p1ulv3032.1 kV=0.12 Vminpu=0.8 Vmaxpu=1.2 model=1 kW=7.04256695844029 kvar=1.659740351203588 Phases=1 yearly=res_kw_707_pu

New Load.load_p1ulv3032_2 conn=wye bus1=p1ulv3032.2 kV=0.12 Vminpu=0.8 Vmaxpu=1.2 model=1 kW=7.04256695844029 kvar=1.659740351203588 Phases=1 yearly=res_kw_707_pu

New Load.load_p1ulv3033_1 conn=wye bus1=p1ulv3033.1 kV=0.12 Vminpu=0.8 Vmaxpu=1.2 model=1 kW=3.8748715750127736 kvar=1.5614372175332516 Phases=1 yearly=res_kw_517_pu

New Load.load_p1ulv3033_2 conn=wye bus1=p1ulv3033.2 kV=0.12 Vminpu=0.8 Vmaxpu=1.2 model=1 kW=3.8748715750127736 kvar=1.5614372175332516 Phases=1 yearly=res_kw_517_pu

New Load.load_p1ulv3035_1 conn=wye bus1=p1ulv3035.1 kV=0.12 Vminpu=0.8 Vmaxpu=1.2 model=1 kW=5.723135606665604 kvar=1.5038194991101048 Phases=1 yearly=res_kw_1228_pu

New Load.load_p1ulv3035_2 conn=wye bus1=p1ulv3035.2 kV=0.12 Vminpu=0.8 Vmaxpu=1.2 model=1 kW=5.723135606665604 kvar=1.5038194991101048 Phases=1 yearly=res_kw_1228_pu

New Load.load_p1ulv3036_1 conn=wye bus1=p1ulv3036.1 kV=0.12 Vminpu=0.8 Vmaxpu=1.2 model=1 kW=5.630366406134325 kvar=1.4654988363403099 Phases=1 yearly=res_kw_251_pu

New Load.load_p1ulv3036_2 conn=wye bus1=p1ulv3036.2 kV=0.12 Vminpu=0.8 Vmaxpu=1.2 model=1 kW=5.630366406134325 kvar=1.4654988363403099 Phases=1 yearly=res_kw_251_pu

New Load.load_p1ulv3038_1 conn=wye bus1=p1ulv3038.1 kV=0.12 Vminpu=0.8 Vmaxpu=1.2 model=1 kW=2.5047232020051142 kvar=0.6800922265265169 Phases=1 yearly=res_kw_162_pu

New Load.load_p1ulv3038_2 conn=wye bus1=p1ulv3038.2 kV=0.12 Vminpu=0.8 Vmaxpu=1.2 model=1 kW=2.5047232020051142 kvar=0.6800922265265169 Phases=1 yearly=res_kw_162_pu

New Load.load_p1ulv3039_1 conn=wye bus1=p1ulv3039.1 kV=0.12 Vminpu=0.8 Vmaxpu=1.2 model=1 kW=2.9178485115923896 kvar=1.0715119122844614 Phases=1 yearly=res_kw_1149_pu

New Load.load_p1ulv3039_2 conn=wye bus1=p1ulv3039.2 kV=0.12 Vminpu=0.8 Vmaxpu=1.2 model=1 kW=2.9178485115923896 kvar=1.0715119122844614 Phases=1 yearly=res_kw_1149_pu

New Load.load_p1ulv4862_1 conn=wye bus1=p1ulv4862.1 kV=0.12 Vminpu=0.8 Vmaxpu=1.2 model=1 kW=4.6809104122908005 kvar=1.187363895186281 Phases=1 yearly=res_kw_1187_pu

New Load.load_p1ulv4862_2 conn=wye bus1=p1ulv4862.2 kV=0.12 Vminpu=0.8 Vmaxpu=1.2 model=1 kW=4.6809104122908005 kvar=1.187363895186281 Phases=1 yearly=res_kw_1187_pu

New Load.load_p1ulv4864_1 conn=wye bus1=p1ulv4864.1 kV=0.12 Vminpu=0.8 Vmaxpu=1.2 model=1 kW=3.8029744718879392 kvar=1.1462670306842289 Phases=1 yearly=res_kw_263_pu

New Load.load_p1ulv4864_2 conn=wye bus1=p1ulv4864.2 kV=0.12 Vminpu=0.8 Vmaxpu=1.2 model=1 kW=3.8029744718879392 kvar=1.1462670306842289 Phases=1 yearly=res_kw_263_pu

New Load.load_p1ulv4879_1 conn=wye bus1=p1ulv4879.1 kV=0.12 Vminpu=0.8 Vmaxpu=1.2 model=1 kW=2.658027342573646 kvar=0.9113625924854422 Phases=1 yearly=res_kw_1105_pu

New Load.load_p1ulv4879_2 conn=wye bus1=p1ulv4879.2 kV=0.12 Vminpu=0.8 Vmaxpu=1.2 model=1 kW=2.658027342573646 kvar=0.9113625924854422 Phases=1 yearly=res_kw_1105_pu

New Load.load_p1ulv4882_1 conn=wye bus1=p1ulv4882.1 kV=0.12 Vminpu=0.8 Vmaxpu=1.2 model=1 kW=2.916803644387601 kvar=0.11499518252231355 Phases=1 yearly=res_kw_1094_pu

New Load.load_p1ulv4882_2 conn=wye bus1=p1ulv4882.2 kV=0.12 Vminpu=0.8 Vmaxpu=1.2 model=1 kW=2.916803644387601 kvar=0.11499518252231355 Phases=1 yearly=res_kw_1094_pu

New Load.load_p1ulv6283_1 conn=wye bus1=p1ulv6283.1 kV=0.12 Vminpu=0.8 Vmaxpu=1.2 model=1 kW=5.630366406134325 kvar=1.4654988363403099 Phases=1 yearly=res_kw_251_pu

New Load.load_p1ulv6283_2 conn=wye bus1=p1ulv6283.2 kV=0.12 Vminpu=0.8 Vmaxpu=1.2 model=1 kW=5.630366406134325 kvar=1.4654988363403099 Phases=1 yearly=res_kw_251_pu

New Load.load_p1ulv6284_1 conn=wye bus1=p1ulv6284.1 kV=0.12 Vminpu=0.8 Vmaxpu=1.2 model=1 kW=5.6593015111322105 kvar=1.2761251920573724 Phases=1 yearly=res_kw_324_pu

New Load.load_p1ulv6284_2 conn=wye bus1=p1ulv6284.2 kV=0.12 Vminpu=0.8 Vmaxpu=1.2 model=1 kW=5.6593015111322105 kvar=1.2761251920573724 Phases=1 yearly=res_kw_324_pu

New Load.load_p1ulv6285_1 conn=wye bus1=p1ulv6285.1 kV=0.12 Vminpu=0.8 Vmaxpu=1.2 model=1 kW=2.40000228705824 kvar=1.0173787262529668 Phases=1 yearly=res_kw_1205_pu
