New Loadshape.GSO_36.0721_-79.9153_55_135 npts= 35040 interval=0.25 mult = (file=../../../../../profiles/GSO_36.0721_-79.9153_55_135.csv)

New Loadshape.GSO_36.0721_-79.9153_25_225 npts= 35040 interval=0.25 mult = (file=../../../../../profiles/GSO_36.0721_-79.9153_25_225.csv)

New Loadshape.GSO_36.0721_-79.9153_35_90 npts= 35040 interval=0.25 mult = (file=../../../../../profiles/GSO_36.0721_-79.9153_35_90.csv)

New Loadshape.GSO_36.0721_-79.9153_15_180 npts= 35040 interval=0.25 mult = (file=../../../../../profiles/GSO_36.0721_-79.9153_15_180.csv)

New Loadshape.GSO_36.0721_-79.9153_25_180 npts= 35040 interval=0.25 mult = (file=../../../../../profiles/GSO_36.0721_-79.9153_25_180.csv)

New Loadshape.GSO_36.0721_-79.9153_25_135 npts= 35040 interval=0.25 mult = (file=../../../../../profiles/GSO_36.0721_-79.9153_25_135.csv)

New Loadshape.GSO_36.0721_-79.9153_15_90 npts= 35040 interval=0.25 mult = (file=../../../../../profiles/GSO_36.0721_-79.9153_15_90.csv)

New Loadshape.GSO_36.0721_-79.9153_15_270 npts= 35040 interval=0.25 mult = (file=../../../../../profiles/GSO_36.0721_-79.9153_15_270.csv)

New Loadshape.GSO_36.0721_-79.9153_25_270 npts= 35040 interval=0.25 mult = (file=../../../../../profiles/GSO_36.0721_-79.9153_25_270.csv)

New Loadshape.GSO_36.0721_-79.9153_35_270 npts= 35040 interval=0.25 mult = (file=../../../../../profiles/GSO_36.0721_-79.9153_35_270.csv)

New Loadshape.GSO_36.0721_-79.9153_25_90 npts= 35040 interval=0.25 mult = (file=../../../../../profiles/GSO_36.0721_-79.9153_25_90.csv)

New Loadshape.GSO_36.0721_-79.9153_35_180 npts= 35040 interval=0.25 mult = (file=../../../../../profiles/GSO_36.0721_-79.9153_35_180.csv)

New Loadshape.GSO_36.0721_-79.9153_45_90 npts= 35040 interval=0.25 mult = (file=../../../../../profiles/GSO_36.0721_-79.9153_45_90.csv)

New Loadshape.GSO_36.0721_-79.9153_35_225 npts= 35040 interval=0.25 mult = (file=../../../../../profiles/GSO_36.0721_-79.9153_35_225.csv)

New Loadshape.GSO_36.0721_-79.9153_45_270 npts= 35040 interval=0.25 mult = (file=../../../../../profiles/GSO_36.0721_-79.9153_45_270.csv)

New Loadshape.GSO_36.0721_-79.9153_45_180 npts= 35040 interval=0.25 mult = (file=../../../../../profiles/GSO_36.0721_-79.9153_45_180.csv)

New Loadshape.GSO_36.0721_-79.9153_45_135 npts= 35040 interval=0.25 mult = (file=../../../../../profiles/GSO_36.0721_-79.9153_45_135.csv)

New Loadshape.GSO_36.0721_-79.9153_15_225 npts= 35040 interval=0.25 mult = (file=../../../../../profiles/GSO_36.0721_-79.9153_15_225.csv)

New Loadshape.GSO_36.0721_-79.9153_45_225 npts= 35040 interval=0.25 mult = (file=../../../../../profiles/GSO_36.0721_-79.9153_45_225.csv)

New Loadshape.GSO_36.0721_-79.9153_15_135 npts= 35040 interval=0.25 mult = (file=../../../../../profiles/GSO_36.0721_-79.9153_15_135.csv)

New Loadshape.GSO_36.0721_-79.9153_35_135 npts= 35040 interval=0.25 mult = (file=../../../../../profiles/GSO_36.0721_-79.9153_35_135.csv)

New Loadshape.GSO_36.0721_-79.9153_55_270 npts= 35040 interval=0.25 mult = (file=../../../../../profiles/GSO_36.0721_-79.9153_55_270.csv)

New Loadshape.GSO_36.0721_-79.9153_55_180 npts= 35040 interval=0.25 mult = (file=../../../../../profiles/GSO_36.0721_-79.9153_55_180.csv)

New Loadshape.res_kw_627_pu npts= 35040 interval=0.25 mult = (file=../../../../../profiles/res_kw_627_pu.csv) qmult = (file=../../../../../profiles/res_kvar_627_pu.csv)

New Loadshape.res_kw_1066_pu npts= 35040 interval=0.25 mult = (file=../../../../../profiles/res_kw_1066_pu.csv) qmult = (file=../../../../../profiles/res_kvar_1066_pu.csv)

New Loadshape.res_kw_517_pu npts= 35040 interval=0.25 mult = (file=../../../../../profiles/res_kw_517_pu.csv) qmult = (file=../../../../../profiles/res_kvar_517_pu.csv)

New Loadshape.res_kw_75_pu npts= 35040 interval=0.25 mult = (file=../../../../../profiles/res_kw_75_pu.csv) qmult = (file=../../../../../profiles/res_kvar_75_pu.csv)

New Loadshape.res_kw_1160_pu npts= 35040 interval=0.25 mult = (file=../../../../../profiles/res_kw_1160_pu.csv) qmult = (file=../../../../../profiles/res_kvar_1160_pu.csv)

New Loadshape.res_kw_263_pu npts= 35040 interval=0.25 mult = (file=../../../../../profiles/res_kw_263_pu.csv) qmult = (file=../../../../../profiles/res_kvar_263_pu.csv)

New Loadshape.res_kw_898_pu npts= 35040 interval=0.25 mult = (file=../../../../../profiles/res_kw_898_pu.csv) qmult = (file=../../../../../profiles/res_kvar_898_pu.csv)

New Loadshape.res_kw_58_pu npts= 35040 interval=0.25 mult = (file=../../../../../profiles/res_kw_58_pu.csv) qmult = (file=../../../../../profiles/res_kvar_58_pu.csv)

New Loadshape.res_kw_505_pu npts= 35040 interval=0.25 mult = (file=../../../../../profiles/res_kw_505_pu.csv) qmult = (file=../../../../../profiles/res_kvar_505_pu.csv)

New Loadshape.res_kw_1099_pu npts= 35040 interval=0.25 mult = (file=../../../../../profiles/res_kw_1099_pu.csv) qmult = (file=../../../../../profiles/res_kvar_1099_pu.csv)

New Loadshape.res_kw_408_pu npts= 35040 interval=0.25 mult = (file=../../../../../profiles/res_kw_408_pu.csv) qmult = (file=../../../../../profiles/res_kvar_408_pu.csv)

New Loadshape.res_kw_1256_pu npts= 35040 interval=0.25 mult = (file=../../../../../profiles/res_kw_1256_pu.csv) qmult = (file=../../../../../profiles/res_kvar_1256_pu.csv)

New Loadshape.res_kw_887_pu npts= 35040 interval=0.25 mult = (file=../../../../../profiles/res_kw_887_pu.csv) qmult = (file=../../../../../profiles/res_kvar_887_pu.csv)

New Loadshape.res_kw_24_pu npts= 35040 interval=0.25 mult = (file=../../../../../profiles/res_kw_24_pu.csv) qmult = (file=../../../../../profiles/res_kvar_24_pu.csv)

New Loadshape.res_kw_93_pu npts= 35040 interval=0.25 mult = (file=../../../../../profiles/res_kw_93_pu.csv) qmult = (file=../../../../../profiles/res_kvar_93_pu.csv)

New Loadshape.res_kw_141_pu npts= 35040 interval=0.25 mult = (file=../../../../../profiles/res_kw_141_pu.csv) qmult = (file=../../../../../profiles/res_kvar_141_pu.csv)

New Loadshape.res_kw_33_pu npts= 35040 interval=0.25 mult = (file=../../../../../profiles/res_kw_33_pu.csv) qmult = (file=../../../../../profiles/res_kvar_33_pu.csv)

New Loadshape.res_kw_1105_pu npts= 35040 interval=0.25 mult = (file=../../../../../profiles/res_kw_1105_pu.csv) qmult = (file=../../../../../profiles/res_kvar_1105_pu.csv)

New Loadshape.res_kw_532_pu npts= 35040 interval=0.25 mult = (file=../../../../../profiles/res_kw_532_pu.csv) qmult = (file=../../../../../profiles/res_kvar_532_pu.csv)

New Loadshape.res_kw_842_pu npts= 35040 interval=0.25 mult = (file=../../../../../profiles/res_kw_842_pu.csv) qmult = (file=../../../../../profiles/res_kvar_842_pu.csv)

New Loadshape.res_kw_384_pu npts= 35040 interval=0.25 mult = (file=../../../../../profiles/res_kw_384_pu.csv) qmult = (file=../../../../../profiles/res_kvar_384_pu.csv)

New Loadshape.res_kw_462_pu npts= 35040 interval=0.25 mult = (file=../../../../../profiles/res_kw_462_pu.csv) qmult = (file=../../../../../profiles/res_kvar_462_pu.csv)

New Loadshape.res_kw_1159_pu npts= 35040 interval=0.25 mult = (file=../../../../../profiles/res_kw_1159_pu.csv) qmult = (file=../../../../../profiles/res_kvar_1159_pu.csv)

New Loadshape.res_kw_452_pu npts= 35040 interval=0.25 mult = (file=../../../../../profiles/res_kw_452_pu.csv) qmult = (file=../../../../../profiles/res_kvar_452_pu.csv)

New Loadshape.res_kw_599_pu npts= 35040 interval=0.25 mult = (file=../../../../../profiles/res_kw_599_pu.csv) qmult = (file=../../../../../profiles/res_kvar_599_pu.csv)

New Loadshape.res_kw_1186_pu npts= 35040 interval=0.25 mult = (file=../../../../../profiles/res_kw_1186_pu.csv) qmult = (file=../../../../../profiles/res_kvar_1186_pu.csv)

New Loadshape.res_kw_1149_pu npts= 35040 interval=0.25 mult = (file=../../../../../profiles/res_kw_1149_pu.csv) qmult = (file=../../../../../profiles/res_kvar_1149_pu.csv)

New Loadshape.res_kw_1223_pu npts= 35040 interval=0.25 mult = (file=../../../../../profiles/res_kw_1223_pu.csv) qmult = (file=../../../../../profiles/res_kvar_1223_pu.csv)

New Loadshape.res_kw_267_pu npts= 35040 interval=0.25 mult = (file=../../../../../profiles/res_kw_267_pu.csv) qmult = (file=../../../../../profiles/res_kvar_267_pu.csv)

New Loadshape.res_kw_564_pu npts= 35040 interval=0.25 mult = (file=../../../../../profiles/res_kw_564_pu.csv) qmult = (file=../../../../../profiles/res_kvar_564_pu.csv)

New Loadshape.res_kw_931_pu npts= 35040 interval=0.25 mult = (file=../../../../../profiles/res_kw_931_pu.csv) qmult = (file=../../../../../profiles/res_kvar_931_pu.csv)

New Loadshape.res_kw_30_pu npts= 35040 interval=0.25 mult = (file=../../../../../profiles/res_kw_30_pu.csv) qmult = (file=../../../../../profiles/res_kvar_30_pu.csv)

New Loadshape.res_kw_512_pu npts= 35040 interval=0.25 mult = (file=../../../../../profiles/res_kw_512_pu.csv) qmult = (file=../../../../../profiles/res_kvar_512_pu.csv)

New Loadshape.res_kw_1037_pu npts= 35040 interval=0.25 mult = (file=../../../../../profiles/res_kw_1037_pu.csv) qmult = (file=../../../../../profiles/res_kvar_1037_pu.csv)

New Loadshape.res_kw_1273_pu npts= 35040 interval=0.25 mult = (file=../../../../../profiles/res_kw_1273_pu.csv) qmult = (file=../../../../../profiles/res_kvar_1273_pu.csv)

New Loadshape.res_kw_534_pu npts= 35040 interval=0.25 mult = (file=../../../../../profiles/res_kw_534_pu.csv) qmult = (file=../../../../../profiles/res_kvar_534_pu.csv)

New Loadshape.res_kw_409_pu npts= 35040 interval=0.25 mult = (file=../../../../../profiles/res_kw_409_pu.csv) qmult = (file=../../../../../profiles/res_kvar_409_pu.csv)

New Loadshape.res_kw_879_pu npts= 35040 interval=0.25 mult = (file=../../../../../profiles/res_kw_879_pu.csv) qmult = (file=../../../../../profiles/res_kvar_879_pu.csv)

New Loadshape.res_kw_670_pu npts= 35040 interval=0.25 mult = (file=../../../../../profiles/res_kw_670_pu.csv) qmult = (file=../../../../../profiles/res_kvar_670_pu.csv)

New Loadshape.res_kw_1270_pu npts= 35040 interval=0.25 mult = (file=../../../../../profiles/res_kw_1270_pu.csv) qmult = (file=../../../../../profiles/res_kvar_1270_pu.csv)

New Loadshape.res_kw_205_pu npts= 35040 interval=0.25 mult = (file=../../../../../profiles/res_kw_205_pu.csv) qmult = (file=../../../../../profiles/res_kvar_205_pu.csv)

New Loadshape.res_kw_431_pu npts= 35040 interval=0.25 mult = (file=../../../../../profiles/res_kw_431_pu.csv) qmult = (file=../../../../../profiles/res_kvar_431_pu.csv)

New Loadshape.res_kw_327_pu npts= 35040 interval=0.25 mult = (file=../../../../../profiles/res_kw_327_pu.csv) qmult = (file=../../../../../profiles/res_kvar_327_pu.csv)

New Loadshape.res_kw_41_pu npts= 35040 interval=0.25 mult = (file=../../../../../profiles/res_kw_41_pu.csv) qmult = (file=../../../../../profiles/res_kvar_41_pu.csv)

New Loadshape.res_kw_853_pu npts= 35040 interval=0.25 mult = (file=../../../../../profiles/res_kw_853_pu.csv) qmult = (file=../../../../../profiles/res_kvar_853_pu.csv)

New Loadshape.res_kw_332_pu npts= 35040 interval=0.25 mult = (file=../../../../../profiles/res_kw_332_pu.csv) qmult = (file=../../../../../profiles/res_kvar_332_pu.csv)

New Loadshape.res_kw_1205_pu npts= 35040 interval=0.25 mult = (file=../../../../../profiles/res_kw_1205_pu.csv) qmult = (file=../../../../../profiles/res_kvar_1205_pu.csv)

New Loadshape.res_kw_245_pu npts= 35040 interval=0.25 mult = (file=../../../../../profiles/res_kw_245_pu.csv) qmult = (file=../../../../../profiles/res_kvar_245_pu.csv)

New Loadshape.res_kw_598_pu npts= 35040 interval=0.25 mult = (file=../../../../../profiles/res_kw_598_pu.csv) qmult = (file=../../../../../profiles/res_kvar_598_pu.csv)

New Loadshape.res_kw_98_pu npts= 35040 interval=0.25 mult = (file=../../../../../profiles/res_kw_98_pu.csv) qmult = (file=../../../../../profiles/res_kvar_98_pu.csv)

New Loadshape.res_kw_1258_pu npts= 35040 interval=0.25 mult = (file=../../../../../profiles/res_kw_1258_pu.csv) qmult = (file=../../../../../profiles/res_kvar_1258_pu.csv)

New Loadshape.res_kw_1041_pu npts= 35040 interval=0.25 mult = (file=../../../../../profiles/res_kw_1041_pu.csv) qmult = (file=../../../../../profiles/res_kvar_1041_pu.csv)

New Loadshape.res_kw_549_pu npts= 35040 interval=0.25 mult = (file=../../../../../profiles/res_kw_549_pu.csv) qmult = (file=../../../../../profiles/res_kvar_549_pu.csv)

New Loadshape.res_kw_331_pu npts= 35040 interval=0.25 mult = (file=../../../../../profiles/res_kw_331_pu.csv) qmult = (file=../../../../../profiles/res_kvar_331_pu.csv)

New Loadshape.res_kw_123_pu npts= 35040 interval=0.25 mult = (file=../../../../../profiles/res_kw_123_pu.csv) qmult = (file=../../../../../profiles/res_kvar_123_pu.csv)

New Loadshape.res_kw_454_pu npts= 35040 interval=0.25 mult = (file=../../../../../profiles/res_kw_454_pu.csv) qmult = (file=../../../../../profiles/res_kvar_454_pu.csv)

New Loadshape.res_kw_314_pu npts= 35040 interval=0.25 mult = (file=../../../../../profiles/res_kw_314_pu.csv) qmult = (file=../../../../../profiles/res_kvar_314_pu.csv)

New Loadshape.res_kw_504_pu npts= 35040 interval=0.25 mult = (file=../../../../../profiles/res_kw_504_pu.csv) qmult = (file=../../../../../profiles/res_kvar_504_pu.csv)

New Loadshape.res_kw_1267_pu npts= 35040 interval=0.25 mult = (file=../../../../../profiles/res_kw_1267_pu.csv) qmult = (file=../../../../../profiles/res_kvar_1267_pu.csv)

New Loadshape.res_kw_829_pu npts= 35040 interval=0.25 mult = (file=../../../../../profiles/res_kw_829_pu.csv) qmult = (file=../../../../../profiles/res_kvar_829_pu.csv)

New Loadshape.res_kw_790_pu npts= 35040 interval=0.25 mult = (file=../../../../../profiles/res_kw_790_pu.csv) qmult = (file=../../../../../profiles/res_kvar_790_pu.csv)

New Loadshape.res_kw_128_pu npts= 35040 interval=0.25 mult = (file=../../../../../profiles/res_kw_128_pu.csv) qmult = (file=../../../../../profiles/res_kvar_128_pu.csv)

New Loadshape.res_kw_897_pu npts= 35040 interval=0.25 mult = (file=../../../../../profiles/res_kw_897_pu.csv) qmult = (file=../../../../../profiles/res_kvar_897_pu.csv)

New Loadshape.res_kw_822_pu npts= 35040 interval=0.25 mult = (file=../../../../../profiles/res_kw_822_pu.csv) qmult = (file=../../../../../profiles/res_kvar_822_pu.csv)

New Loadshape.res_kw_231_pu npts= 35040 interval=0.25 mult = (file=../../../../../profiles/res_kw_231_pu.csv) qmult = (file=../../../../../profiles/res_kvar_231_pu.csv)

New Loadshape.res_kw_652_pu npts= 35040 interval=0.25 mult = (file=../../../../../profiles/res_kw_652_pu.csv) qmult = (file=../../../../../profiles/res_kvar_652_pu.csv)

New Loadshape.res_kw_222_pu npts= 35040 interval=0.25 mult = (file=../../../../../profiles/res_kw_222_pu.csv) qmult = (file=../../../../../profiles/res_kvar_222_pu.csv)

New Loadshape.res_kw_76_pu npts= 35040 interval=0.25 mult = (file=../../../../../profiles/res_kw_76_pu.csv) qmult = (file=../../../../../profiles/res_kvar_76_pu.csv)

New Loadshape.res_kw_825_pu npts= 35040 interval=0.25 mult = (file=../../../../../profiles/res_kw_825_pu.csv) qmult = (file=../../../../../profiles/res_kvar_825_pu.csv)

New Loadshape.res_kw_1023_pu npts= 35040 interval=0.25 mult = (file=../../../../../profiles/res_kw_1023_pu.csv) qmult = (file=../../../../../profiles/res_kvar_1023_pu.csv)

New Loadshape.res_kw_4_pu npts= 35040 interval=0.25 mult = (file=../../../../../profiles/res_kw_4_pu.csv) qmult = (file=../../../../../profiles/res_kvar_4_pu.csv)

New Loadshape.res_kw_1121_pu npts= 35040 interval=0.25 mult = (file=../../../../../profiles/res_kw_1121_pu.csv) qmult = (file=../../../../../profiles/res_kvar_1121_pu.csv)

New Loadshape.res_kw_846_pu npts= 35040 interval=0.25 mult = (file=../../../../../profiles/res_kw_846_pu.csv) qmult = (file=../../../../../profiles/res_kvar_846_pu.csv)

New Loadshape.res_kw_537_pu npts= 35040 interval=0.25 mult = (file=../../../../../profiles/res_kw_537_pu.csv) qmult = (file=../../../../../profiles/res_kvar_537_pu.csv)

New Loadshape.res_kw_199_pu npts= 35040 interval=0.25 mult = (file=../../../../../profiles/res_kw_199_pu.csv) qmult = (file=../../../../../profiles/res_kvar_199_pu.csv)

New Loadshape.res_kw_1275_pu npts= 35040 interval=0.25 mult = (file=../../../../../profiles/res_kw_1275_pu.csv) qmult = (file=../../../../../profiles/res_kvar_1275_pu.csv)

New Loadshape.res_kw_250_pu npts= 35040 interval=0.25 mult = (file=../../../../../profiles/res_kw_250_pu.csv) qmult = (file=../../../../../profiles/res_kvar_250_pu.csv)

New Loadshape.res_kw_112_pu npts= 35040 interval=0.25 mult = (file=../../../../../profiles/res_kw_112_pu.csv) qmult = (file=../../../../../profiles/res_kvar_112_pu.csv)

New Loadshape.res_kw_710_pu npts= 35040 interval=0.25 mult = (file=../../../../../profiles/res_kw_710_pu.csv) qmult = (file=../../../../../profiles/res_kvar_710_pu.csv)

New Loadshape.res_kw_324_pu npts= 35040 interval=0.25 mult = (file=../../../../../profiles/res_kw_324_pu.csv) qmult = (file=../../../../../profiles/res_kvar_324_pu.csv)

New Loadshape.res_kw_988_pu npts= 35040 interval=0.25 mult = (file=../../../../../profiles/res_kw_988_pu.csv) qmult = (file=../../../../../profiles/res_kvar_988_pu.csv)

New Loadshape.res_kw_748_pu npts= 35040 interval=0.25 mult = (file=../../../../../profiles/res_kw_748_pu.csv) qmult = (file=../../../../../profiles/res_kvar_748_pu.csv)

New Loadshape.res_kw_843_pu npts= 35040 interval=0.25 mult = (file=../../../../../profiles/res_kw_843_pu.csv) qmult = (file=../../../../../profiles/res_kvar_843_pu.csv)

New Loadshape.res_kw_1070_pu npts= 35040 interval=0.25 mult = (file=../../../../../profiles/res_kw_1070_pu.csv) qmult = (file=../../../../../profiles/res_kvar_1070_pu.csv)

New Loadshape.res_kw_203_pu npts= 35040 interval=0.25 mult = (file=../../../../../profiles/res_kw_203_pu.csv) qmult = (file=../../../../../profiles/res_kvar_203_pu.csv)

New Loadshape.res_kw_303_pu npts= 35040 interval=0.25 mult = (file=../../../../../profiles/res_kw_303_pu.csv) qmult = (file=../../../../../profiles/res_kvar_303_pu.csv)

New Loadshape.res_kw_46_pu npts= 35040 interval=0.25 mult = (file=../../../../../profiles/res_kw_46_pu.csv) qmult = (file=../../../../../profiles/res_kvar_46_pu.csv)

New Loadshape.res_kw_1094_pu npts= 35040 interval=0.25 mult = (file=../../../../../profiles/res_kw_1094_pu.csv) qmult = (file=../../../../../profiles/res_kvar_1094_pu.csv)

New Loadshape.res_kw_795_pu npts= 35040 interval=0.25 mult = (file=../../../../../profiles/res_kw_795_pu.csv) qmult = (file=../../../../../profiles/res_kvar_795_pu.csv)

New Loadshape.res_kw_9_pu npts= 35040 interval=0.25 mult = (file=../../../../../profiles/res_kw_9_pu.csv) qmult = (file=../../../../../profiles/res_kvar_9_pu.csv)

New Loadshape.res_kw_760_pu npts= 35040 interval=0.25 mult = (file=../../../../../profiles/res_kw_760_pu.csv) qmult = (file=../../../../../profiles/res_kvar_760_pu.csv)

New Loadshape.com_kw_14092_pu npts= 35040 interval=0.25 mult = (file=../../../../../profiles/com_kw_14092_pu.csv) qmult = (file=../../../../../profiles/com_kvar_14092_pu.csv)

New Loadshape.com_kw_14925_pu npts= 35040 interval=0.25 mult = (file=../../../../../profiles/com_kw_14925_pu.csv) qmult = (file=../../../../../profiles/com_kvar_14925_pu.csv)

New Loadshape.com_kw_15170_pu npts= 35040 interval=0.25 mult = (file=../../../../../profiles/com_kw_15170_pu.csv) qmult = (file=../../../../../profiles/com_kvar_15170_pu.csv)

New Loadshape.com_kw_14382_pu npts= 35040 interval=0.25 mult = (file=../../../../../profiles/com_kw_14382_pu.csv) qmult = (file=../../../../../profiles/com_kvar_14382_pu.csv)

New Loadshape.com_kw_13601_pu npts= 35040 interval=0.25 mult = (file=../../../../../profiles/com_kw_13601_pu.csv) qmult = (file=../../../../../profiles/com_kvar_13601_pu.csv)

New Loadshape.com_kw_14919_pu npts= 35040 interval=0.25 mult = (file=../../../../../profiles/com_kw_14919_pu.csv) qmult = (file=../../../../../profiles/com_kvar_14919_pu.csv)

New Loadshape.com_kw_14533_pu npts= 35040 interval=0.25 mult = (file=../../../../../profiles/com_kw_14533_pu.csv) qmult = (file=../../../../../profiles/com_kvar_14533_pu.csv)

New Loadshape.com_kw_15000_pu npts= 35040 interval=0.25 mult = (file=../../../../../profiles/com_kw_15000_pu.csv) qmult = (file=../../../../../profiles/com_kvar_15000_pu.csv)

New Loadshape.com_kw_14067_pu npts= 35040 interval=0.25 mult = (file=../../../../../profiles/com_kw_14067_pu.csv) qmult = (file=../../../../../profiles/com_kvar_14067_pu.csv)

New Loadshape.com_kw_13736_pu npts= 35040 interval=0.25 mult = (file=../../../../../profiles/com_kw_13736_pu.csv) qmult = (file=../../../../../profiles/com_kvar_13736_pu.csv)

New Loadshape.com_kw_12824_pu npts= 35040 interval=0.25 mult = (file=../../../../../profiles/com_kw_12824_pu.csv) qmult = (file=../../../../../profiles/com_kvar_12824_pu.csv)

New Loadshape.com_kw_13515_pu npts= 35040 interval=0.25 mult = (file=../../../../../profiles/com_kw_13515_pu.csv) qmult = (file=../../../../../profiles/com_kvar_13515_pu.csv)

New Loadshape.com_kw_13069_pu npts= 35040 interval=0.25 mult = (file=../../../../../profiles/com_kw_13069_pu.csv) qmult = (file=../../../../../profiles/com_kvar_13069_pu.csv)

New Loadshape.com_kw_14522_pu npts= 35040 interval=0.25 mult = (file=../../../../../profiles/com_kw_14522_pu.csv) qmult = (file=../../../../../profiles/com_kvar_14522_pu.csv)

New Loadshape.com_kw_14592_pu npts= 35040 interval=0.25 mult = (file=../../../../../profiles/com_kw_14592_pu.csv) qmult = (file=../../../../../profiles/com_kvar_14592_pu.csv)

New Loadshape.com_kw_14429_pu npts= 35040 interval=0.25 mult = (file=../../../../../profiles/com_kw_14429_pu.csv) qmult = (file=../../../../../profiles/com_kvar_14429_pu.csv)

New Loadshape.com_kw_14059_pu npts= 35040 interval=0.25 mult = (file=../../../../../profiles/com_kw_14059_pu.csv) qmult = (file=../../../../../profiles/com_kvar_14059_pu.csv)

New Loadshape.com_kw_14809_pu npts= 35040 interval=0.25 mult = (file=../../../../../profiles/com_kw_14809_pu.csv) qmult = (file=../../../../../profiles/com_kvar_14809_pu.csv)

New Loadshape.com_kw_13682_pu npts= 35040 interval=0.25 mult = (file=../../../../../profiles/com_kw_13682_pu.csv) qmult = (file=../../../../../profiles/com_kvar_13682_pu.csv)

New Loadshape.com_kw_15040_pu npts= 35040 interval=0.25 mult = (file=../../../../../profiles/com_kw_15040_pu.csv) qmult = (file=../../../../../profiles/com_kvar_15040_pu.csv)

New Loadshape.com_kw_14877_pu npts= 35040 interval=0.25 mult = (file=../../../../../profiles/com_kw_14877_pu.csv) qmult = (file=../../../../../profiles/com_kvar_14877_pu.csv)

New Loadshape.com_kw_13891_pu npts= 35040 interval=0.25 mult = (file=../../../../../profiles/com_kw_13891_pu.csv) qmult = (file=../../../../../profiles/com_kvar_13891_pu.csv)

New Loadshape.com_kw_12942_pu npts= 35040 interval=0.25 mult = (file=../../../../../profiles/com_kw_12942_pu.csv) qmult = (file=../../../../../profiles/com_kvar_12942_pu.csv)

New Loadshape.com_kw_14007_pu npts= 35040 interval=0.25 mult = (file=../../../../../profiles/com_kw_14007_pu.csv) qmult = (file=../../../../../profiles/com_kvar_14007_pu.csv)

New Loadshape.com_kw_14353_pu npts= 35040 interval=0.25 mult = (file=../../../../../profiles/com_kw_14353_pu.csv) qmult = (file=../../../../../profiles/com_kvar_14353_pu.csv)

New Loadshape.com_kw_13949_pu npts= 35040 interval=0.25 mult = (file=../../../../../profiles/com_kw_13949_pu.csv) qmult = (file=../../../../../profiles/com_kvar_13949_pu.csv)

New Loadshape.com_kw_14420_pu npts= 35040 interval=0.25 mult = (file=../../../../../profiles/com_kw_14420_pu.csv) qmult = (file=../../../../../profiles/com_kvar_14420_pu.csv)

New Loadshape.com_kw_12847_pu npts= 35040 interval=0.25 mult = (file=../../../../../profiles/com_kw_12847_pu.csv) qmult = (file=../../../../../profiles/com_kvar_12847_pu.csv)

New Loadshape.com_kw_14802_pu npts= 35040 interval=0.25 mult = (file=../../../../../profiles/com_kw_14802_pu.csv) qmult = (file=../../../../../profiles/com_kvar_14802_pu.csv)

New Loadshape.com_kw_13425_pu npts= 35040 interval=0.25 mult = (file=../../../../../profiles/com_kw_13425_pu.csv) qmult = (file=../../../../../profiles/com_kvar_13425_pu.csv)

New Loadshape.com_kw_12857_pu npts= 35040 interval=0.25 mult = (file=../../../../../profiles/com_kw_12857_pu.csv) qmult = (file=../../../../../profiles/com_kvar_12857_pu.csv)

New Loadshape.com_kw_14231_pu npts= 35040 interval=0.25 mult = (file=../../../../../profiles/com_kw_14231_pu.csv) qmult = (file=../../../../../profiles/com_kvar_14231_pu.csv)

New Loadshape.com_kw_13585_pu npts= 35040 interval=0.25 mult = (file=../../../../../profiles/com_kw_13585_pu.csv) qmult = (file=../../../../../profiles/com_kvar_13585_pu.csv)

New Loadshape.com_kw_13939_pu npts= 35040 interval=0.25 mult = (file=../../../../../profiles/com_kw_13939_pu.csv) qmult = (file=../../../../../profiles/com_kvar_13939_pu.csv)

New Loadshape.com_kw_13545_pu npts= 35040 interval=0.25 mult = (file=../../../../../profiles/com_kw_13545_pu.csv) qmult = (file=../../../../../profiles/com_kvar_13545_pu.csv)

New Loadshape.com_kw_12992_pu npts= 35040 interval=0.25 mult = (file=../../../../../profiles/com_kw_12992_pu.csv) qmult = (file=../../../../../profiles/com_kvar_12992_pu.csv)

New Loadshape.com_kw_14502_pu npts= 35040 interval=0.25 mult = (file=../../../../../profiles/com_kw_14502_pu.csv) qmult = (file=../../../../../profiles/com_kvar_14502_pu.csv)

New Loadshape.com_kw_14989_pu npts= 35040 interval=0.25 mult = (file=../../../../../profiles/com_kw_14989_pu.csv) qmult = (file=../../../../../profiles/com_kvar_14989_pu.csv)

New Loadshape.com_kw_14478_pu npts= 35040 interval=0.25 mult = (file=../../../../../profiles/com_kw_14478_pu.csv) qmult = (file=../../../../../profiles/com_kvar_14478_pu.csv)

New Loadshape.com_kw_12789_pu npts= 35040 interval=0.25 mult = (file=../../../../../profiles/com_kw_12789_pu.csv) qmult = (file=../../../../../profiles/com_kvar_12789_pu.csv)

New Loadshape.com_kw_12884_pu npts= 35040 interval=0.25 mult = (file=../../../../../profiles/com_kw_12884_pu.csv) qmult = (file=../../../../../profiles/com_kvar_12884_pu.csv)

New Loadshape.com_kw_14360_pu npts= 35040 interval=0.25 mult = (file=../../../../../profiles/com_kw_14360_pu.csv) qmult = (file=../../../../../profiles/com_kvar_14360_pu.csv)

New Loadshape.com_kw_13043_pu npts= 35040 interval=0.25 mult = (file=../../../../../profiles/com_kw_13043_pu.csv) qmult = (file=../../../../../profiles/com_kvar_13043_pu.csv)

New Loadshape.com_kw_15266_pu npts= 35040 interval=0.25 mult = (file=../../../../../profiles/com_kw_15266_pu.csv) qmult = (file=../../../../../profiles/com_kvar_15266_pu.csv)

New Loadshape.com_kw_14340_pu npts= 35040 interval=0.25 mult = (file=../../../../../profiles/com_kw_14340_pu.csv) qmult = (file=../../../../../profiles/com_kvar_14340_pu.csv)

New Loadshape.com_kw_13066_pu npts= 35040 interval=0.25 mult = (file=../../../../../profiles/com_kw_13066_pu.csv) qmult = (file=../../../../../profiles/com_kvar_13066_pu.csv)

New Loadshape.com_kw_14580_pu npts= 35040 interval=0.25 mult = (file=../../../../../profiles/com_kw_14580_pu.csv) qmult = (file=../../../../../profiles/com_kvar_14580_pu.csv)

New Loadshape.com_kw_14013_pu npts= 35040 interval=0.25 mult = (file=../../../../../profiles/com_kw_14013_pu.csv) qmult = (file=../../../../../profiles/com_kvar_14013_pu.csv)

New Loadshape.com_kw_13303_pu npts= 35040 interval=0.25 mult = (file=../../../../../profiles/com_kw_13303_pu.csv) qmult = (file=../../../../../profiles/com_kvar_13303_pu.csv)

New Loadshape.com_kw_14650_pu npts= 35040 interval=0.25 mult = (file=../../../../../profiles/com_kw_14650_pu.csv) qmult = (file=../../../../../profiles/com_kvar_14650_pu.csv)

New Loadshape.com_kw_14407_pu npts= 35040 interval=0.25 mult = (file=../../../../../profiles/com_kw_14407_pu.csv) qmult = (file=../../../../../profiles/com_kvar_14407_pu.csv)

New Loadshape.com_kw_13875_pu npts= 35040 interval=0.25 mult = (file=../../../../../profiles/com_kw_13875_pu.csv) qmult = (file=../../../../../profiles/com_kvar_13875_pu.csv)

New Loadshape.com_kw_15238_pu npts= 35040 interval=0.25 mult = (file=../../../../../profiles/com_kw_15238_pu.csv) qmult = (file=../../../../../profiles/com_kvar_15238_pu.csv)

New Loadshape.com_kw_14971_pu npts= 35040 interval=0.25 mult = (file=../../../../../profiles/com_kw_14971_pu.csv) qmult = (file=../../../../../profiles/com_kvar_14971_pu.csv)

New Loadshape.com_kw_13010_pu npts= 35040 interval=0.25 mult = (file=../../../../../profiles/com_kw_13010_pu.csv) qmult = (file=../../../../../profiles/com_kvar_13010_pu.csv)

New Loadshape.com_kw_14536_pu npts= 35040 interval=0.25 mult = (file=../../../../../profiles/com_kw_14536_pu.csv) qmult = (file=../../../../../profiles/com_kvar_14536_pu.csv)

New Loadshape.com_kw_15271_pu npts= 35040 interval=0.25 mult = (file=../../../../../profiles/com_kw_15271_pu.csv) qmult = (file=../../../../../profiles/com_kvar_15271_pu.csv)

New Loadshape.com_kw_14123_pu npts= 35040 interval=0.25 mult = (file=../../../../../profiles/com_kw_14123_pu.csv) qmult = (file=../../../../../profiles/com_kvar_14123_pu.csv)

New Loadshape.com_kw_13229_pu npts= 35040 interval=0.25 mult = (file=../../../../../profiles/com_kw_13229_pu.csv) qmult = (file=../../../../../profiles/com_kvar_13229_pu.csv)

New Loadshape.com_kw_13886_pu npts= 35040 interval=0.25 mult = (file=../../../../../profiles/com_kw_13886_pu.csv) qmult = (file=../../../../../profiles/com_kvar_13886_pu.csv)

New Loadshape.com_kw_15149_pu npts= 35040 interval=0.25 mult = (file=../../../../../profiles/com_kw_15149_pu.csv) qmult = (file=../../../../../profiles/com_kvar_15149_pu.csv)

New Loadshape.com_kw_13777_pu npts= 35040 interval=0.25 mult = (file=../../../../../profiles/com_kw_13777_pu.csv) qmult = (file=../../../../../profiles/com_kvar_13777_pu.csv)

New Loadshape.com_kw_13526_pu npts= 35040 interval=0.25 mult = (file=../../../../../profiles/com_kw_13526_pu.csv) qmult = (file=../../../../../profiles/com_kvar_13526_pu.csv)

New Loadshape.com_kw_14520_pu npts= 35040 interval=0.25 mult = (file=../../../../../profiles/com_kw_14520_pu.csv) qmult = (file=../../../../../profiles/com_kvar_14520_pu.csv)
