New Load.load_p1ulv1390 conn=wye bus1=p1ulv1390.1.2.3 kV=0.48 Vminpu=0.8 Vmaxpu=1.2 model=1 kW=66.70699440020488 kvar=13.508477875950637 Phases=3 yearly=com_kw_14092_pu

New Load.load_p1ulv1392_1 conn=wye bus1=p1ulv1392.1 kV=0.12 Vminpu=0.8 Vmaxpu=1.2 model=1 kW=6.216266237697332 kvar=1.7290845325999502 Phases=1 yearly=com_kw_14925_pu

New Load.load_p1ulv1392_2 conn=wye bus1=p1ulv1392.2 kV=0.12 Vminpu=0.8 Vmaxpu=1.2 model=1 kW=6.216266237697332 kvar=1.7290845325999502 Phases=1 yearly=com_kw_14925_pu

New Load.load_p1ulv1393 conn=wye bus1=p1ulv1393.1.2.3 kV=0.48 Vminpu=0.8 Vmaxpu=1.2 model=1 kW=41.71938641135328 kvar=2.8223161365755196 Phases=3 yearly=com_kw_15170_pu

New Load.load_p1ulv1542_1 conn=wye bus1=p1ulv1542.1 kV=0.12 Vminpu=0.8 Vmaxpu=1.2 model=1 kW=4.47171304939181 kvar=1.1676103385976955 Phases=1 yearly=res_kw_627_pu

New Load.load_p1ulv1542_2 conn=wye bus1=p1ulv1542.2 kV=0.12 Vminpu=0.8 Vmaxpu=1.2 model=1 kW=4.47171304939181 kvar=1.1676103385976955 Phases=1 yearly=res_kw_627_pu

New Load.load_p1ulv1544_1 conn=wye bus1=p1ulv1544.1 kV=0.12 Vminpu=0.8 Vmaxpu=1.2 model=1 kW=7.29964547707174 kvar=1.0805961207975088 Phases=1 yearly=res_kw_1066_pu

New Load.load_p1ulv1544_2 conn=wye bus1=p1ulv1544.2 kV=0.12 Vminpu=0.8 Vmaxpu=1.2 model=1 kW=7.29964547707174 kvar=1.0805961207975088 Phases=1 yearly=res_kw_1066_pu

New Load.load_p1ulv1546_1 conn=wye bus1=p1ulv1546.1 kV=0.12 Vminpu=0.8 Vmaxpu=1.2 model=1 kW=3.8748715750127736 kvar=1.5614372175332516 Phases=1 yearly=res_kw_517_pu

New Load.load_p1ulv1546_2 conn=wye bus1=p1ulv1546.2 kV=0.12 Vminpu=0.8 Vmaxpu=1.2 model=1 kW=3.8748715750127736 kvar=1.5614372175332516 Phases=1 yearly=res_kw_517_pu

New Load.load_p1ulv1549_1 conn=wye bus1=p1ulv1549.1 kV=0.12 Vminpu=0.8 Vmaxpu=1.2 model=1 kW=5.286987923172412 kvar=0.912918656895422 Phases=1 yearly=res_kw_75_pu

New Load.load_p1ulv1549_2 conn=wye bus1=p1ulv1549.2 kV=0.12 Vminpu=0.8 Vmaxpu=1.2 model=1 kW=5.286987923172412 kvar=0.912918656895422 Phases=1 yearly=res_kw_75_pu

New Load.load_p1ulv1559_1 conn=wye bus1=p1ulv1559.1 kV=0.12 Vminpu=0.8 Vmaxpu=1.2 model=1 kW=4.889402611994926 kvar=1.0559288347164948 Phases=1 yearly=res_kw_1160_pu

New Load.load_p1ulv1559_2 conn=wye bus1=p1ulv1559.2 kV=0.12 Vminpu=0.8 Vmaxpu=1.2 model=1 kW=4.889402611994926 kvar=1.0559288347164948 Phases=1 yearly=res_kw_1160_pu

New Load.load_p1ulv1567_1 conn=wye bus1=p1ulv1567.1 kV=0.12 Vminpu=0.8 Vmaxpu=1.2 model=1 kW=3.8029744718879392 kvar=1.1462670306842289 Phases=1 yearly=res_kw_263_pu

New Load.load_p1ulv1567_2 conn=wye bus1=p1ulv1567.2 kV=0.12 Vminpu=0.8 Vmaxpu=1.2 model=1 kW=3.8029744718879392 kvar=1.1462670306842289 Phases=1 yearly=res_kw_263_pu

New Load.load_p1ulv1570_1 conn=wye bus1=p1ulv1570.1 kV=0.12 Vminpu=0.8 Vmaxpu=1.2 model=1 kW=6.847378896370207 kvar=0.2857422414791666 Phases=1 yearly=com_kw_14382_pu

New Load.load_p1ulv1570_2 conn=wye bus1=p1ulv1570.2 kV=0.12 Vminpu=0.8 Vmaxpu=1.2 model=1 kW=6.847378896370207 kvar=0.2857422414791666 Phases=1 yearly=com_kw_14382_pu

New Load.load_p1ulv1571_1 conn=wye bus1=p1ulv1571.1 kV=0.12 Vminpu=0.8 Vmaxpu=1.2 model=1 kW=4.792624300749482 kvar=1.1139407265067676 Phases=1 yearly=res_kw_898_pu

New Load.load_p1ulv1571_2 conn=wye bus1=p1ulv1571.2 kV=0.12 Vminpu=0.8 Vmaxpu=1.2 model=1 kW=4.792624300749482 kvar=1.1139407265067676 Phases=1 yearly=res_kw_898_pu

New Load.load_p1ulv1573 conn=wye bus1=p1ulv1573.1.2.3 kV=0.48 Vminpu=0.8 Vmaxpu=1.2 model=1 kW=78.67319233171877 kvar=23.77668054609895 Phases=3 yearly=com_kw_13601_pu

New Load.load_p1ulv1574 conn=wye bus1=p1ulv1574.1.2.3 kV=0.48 Vminpu=0.8 Vmaxpu=1.2 model=1 kW=39.0072223129537 kvar=9.746263475181971 Phases=3 yearly=com_kw_14919_pu

New Load.load_p1ulv1575 conn=wye bus1=p1ulv1575.1.2.3 kV=0.48 Vminpu=0.8 Vmaxpu=1.2 model=1 kW=70.95836030073916 kvar=2.5089240380191487 Phases=3 yearly=com_kw_14533_pu

New Load.load_p1ulv1576 conn=wye bus1=p1ulv1576.1.2.3 kV=0.48 Vminpu=0.8 Vmaxpu=1.2 model=1 kW=174.69285410291275 kvar=45.82197168104374 Phases=3 yearly=com_kw_15000_pu

New Load.load_p1ulv1577_1 conn=wye bus1=p1ulv1577.1 kV=0.12 Vminpu=0.8 Vmaxpu=1.2 model=1 kW=6.440259681590648 kvar=0.8229469686528359 Phases=1 yearly=res_kw_58_pu

New Load.load_p1ulv1577_2 conn=wye bus1=p1ulv1577.2 kV=0.12 Vminpu=0.8 Vmaxpu=1.2 model=1 kW=6.440259681590648 kvar=0.8229469686528359 Phases=1 yearly=res_kw_58_pu

New Load.load_p1ulv1578 conn=wye bus1=p1ulv1578.1.2.3 kV=0.48 Vminpu=0.8 Vmaxpu=1.2 model=1 kW=44.65061248381091 kvar=5.172237018209267 Phases=3 yearly=com_kw_14067_pu

New Load.load_p1ulv1579 conn=wye bus1=p1ulv1579.1.2.3 kV=0.48 Vminpu=0.8 Vmaxpu=1.2 model=1 kW=31.067180038035264 kvar=6.272125655909104 Phases=3 yearly=com_kw_13736_pu

New Load.load_p1ulv1581_1 conn=wye bus1=p1ulv1581.1 kV=0.12 Vminpu=0.8 Vmaxpu=1.2 model=1 kW=10.763137052551695 kvar=1.7145459594113484 Phases=1 yearly=res_kw_505_pu

New Load.load_p1ulv1581_2 conn=wye bus1=p1ulv1581.2 kV=0.12 Vminpu=0.8 Vmaxpu=1.2 model=1 kW=10.763137052551695 kvar=1.7145459594113484 Phases=1 yearly=res_kw_505_pu

New Load.load_p1ulv1582_1 conn=wye bus1=p1ulv1582.1 kV=0.12 Vminpu=0.8 Vmaxpu=1.2 model=1 kW=6.817994061838357 kvar=0.9100697715919355 Phases=1 yearly=res_kw_1099_pu

New Load.load_p1ulv1582_2 conn=wye bus1=p1ulv1582.2 kV=0.12 Vminpu=0.8 Vmaxpu=1.2 model=1 kW=6.817994061838357 kvar=0.9100697715919355 Phases=1 yearly=res_kw_1099_pu

New Load.load_p1ulv1583_1 conn=wye bus1=p1ulv1583.1 kV=0.12 Vminpu=0.8 Vmaxpu=1.2 model=1 kW=9.358521499301396 kvar=0.9436008203397507 Phases=1 yearly=com_kw_12824_pu

New Load.load_p1ulv1583_2 conn=wye bus1=p1ulv1583.2 kV=0.12 Vminpu=0.8 Vmaxpu=1.2 model=1 kW=9.358521499301396 kvar=0.9436008203397507 Phases=1 yearly=com_kw_12824_pu

New Load.load_p1ulv1584_1 conn=wye bus1=p1ulv1584.1 kV=0.12 Vminpu=0.8 Vmaxpu=1.2 model=1 kW=6.847378896370207 kvar=0.2857422414791666 Phases=1 yearly=com_kw_14382_pu

New Load.load_p1ulv1584_2 conn=wye bus1=p1ulv1584.2 kV=0.12 Vminpu=0.8 Vmaxpu=1.2 model=1 kW=6.847378896370207 kvar=0.2857422414791666 Phases=1 yearly=com_kw_14382_pu

New Load.load_p1ulv1585_1 conn=wye bus1=p1ulv1585.1 kV=0.12 Vminpu=0.8 Vmaxpu=1.2 model=1 kW=4.589231411483642 kvar=0.1871715682789368 Phases=1 yearly=com_kw_13515_pu

New Load.load_p1ulv1585_2 conn=wye bus1=p1ulv1585.2 kV=0.12 Vminpu=0.8 Vmaxpu=1.2 model=1 kW=4.589231411483642 kvar=0.1871715682789368 Phases=1 yearly=com_kw_13515_pu

New Load.load_p1ulv1586 conn=wye bus1=p1ulv1586.1.2.3 kV=0.48 Vminpu=0.8 Vmaxpu=1.2 model=1 kW=35.973070829781946 kvar=2.1710543333333066 Phases=3 yearly=com_kw_13069_pu

New Load.load_p1ulv1587 conn=wye bus1=p1ulv1587.1.2.3 kV=0.48 Vminpu=0.8 Vmaxpu=1.2 model=1 kW=82.07638060650609 kvar=4.1271221195637455 Phases=3 yearly=com_kw_14522_pu

New Load.load_p1ulv1588 conn=wye bus1=p1ulv1588.1.2.3 kV=0.48 Vminpu=0.8 Vmaxpu=1.2 model=1 kW=58.42176771120902 kvar=10.6233244401917 Phases=3 yearly=com_kw_14592_pu

New Load.load_p1ulv4803 conn=wye bus1=p1ulv4803.1.2.3 kV=0.48 Vminpu=0.8 Vmaxpu=1.2 model=1 kW=301.47960347356656 kvar=15.067065146728998 Phases=3 yearly=com_kw_14429_pu

New Load.load_p1ulv4804 conn=wye bus1=p1ulv4804.1.2.3 kV=0.48 Vminpu=0.8 Vmaxpu=1.2 model=1 kW=60.66883927508716 kvar=8.335325305509627 Phases=3 yearly=com_kw_14059_pu

New Load.load_p1ulv4805 conn=wye bus1=p1ulv4805.1.2.3 kV=0.48 Vminpu=0.8 Vmaxpu=1.2 model=1 kW=25.30417501681602 kvar=7.179767776712684 Phases=3 yearly=com_kw_14809_pu

New Load.load_p1ulv4806 conn=wye bus1=p1ulv4806.1.2.3 kV=0.48 Vminpu=0.8 Vmaxpu=1.2 model=1 kW=41.27726434904335 kvar=10.826959957077602 Phases=3 yearly=com_kw_13682_pu

New Load.load_p1ulv4807_1 conn=wye bus1=p1ulv4807.1 kV=0.12 Vminpu=0.8 Vmaxpu=1.2 model=1 kW=18.844115916391704 kvar=4.2885790500311325 Phases=1 yearly=res_kw_408_pu

New Load.load_p1ulv4807_2 conn=wye bus1=p1ulv4807.2 kV=0.12 Vminpu=0.8 Vmaxpu=1.2 model=1 kW=18.844115916391704 kvar=4.2885790500311325 Phases=1 yearly=res_kw_408_pu

New Load.load_p1ulv4808_1 conn=wye bus1=p1ulv4808.1 kV=0.12 Vminpu=0.8 Vmaxpu=1.2 model=1 kW=12.341586376423468 kvar=0.7836306688727885 Phases=1 yearly=com_kw_15040_pu

New Load.load_p1ulv4808_2 conn=wye bus1=p1ulv4808.2 kV=0.12 Vminpu=0.8 Vmaxpu=1.2 model=1 kW=12.341586376423468 kvar=0.7836306688727885 Phases=1 yearly=com_kw_15040_pu

New Load.load_p1umv7 conn=wye bus1=p1umv7.1.2.3 kV=12.47 Vminpu=0.8 Vmaxpu=1.2 model=1 kW=1305.297366241262 kvar=75.33514254372395 Phases=3 yearly=com_kw_14877_pu

New Load.load_p1ulv4853 conn=wye bus1=p1ulv4853.1.2.3 kV=0.48 Vminpu=0.8 Vmaxpu=1.2 model=1 kW=253.16222139998118 kvar=18.868683832325765 Phases=3 yearly=com_kw_13891_pu

New Load.load_p1ulv8805_1 conn=wye bus1=p1ulv8805.1 kV=0.12 Vminpu=0.8 Vmaxpu=1.2 model=1 kW=3.963001053413761 kvar=0.9410786890170905 Phases=1 yearly=res_kw_1256_pu

New Load.load_p1ulv8805_2 conn=wye bus1=p1ulv8805.2 kV=0.12 Vminpu=0.8 Vmaxpu=1.2 model=1 kW=3.963001053413761 kvar=0.9410786890170905 Phases=1 yearly=res_kw_1256_pu

New Load.load_p1ulv8811 conn=wye bus1=p1ulv8811.1.2.3 kV=0.48 Vminpu=0.8 Vmaxpu=1.2 model=1 kW=177.35593340914244 kvar=55.63579249289259 Phases=3 yearly=com_kw_12942_pu

New Load.load_p1ulv8817 conn=wye bus1=p1ulv8817.1.2.3 kV=0.48 Vminpu=0.8 Vmaxpu=1.2 model=1 kW=147.8346199377875 kvar=40.422425754008465 Phases=3 yearly=com_kw_14007_pu

New Load.load_p1ulv8819 conn=wye bus1=p1ulv8819.1.2.3 kV=0.48 Vminpu=0.8 Vmaxpu=1.2 model=1 kW=49.5670825367442 kvar=13.310050323876105 Phases=3 yearly=com_kw_14353_pu

New Load.load_p1ulv9119 conn=wye bus1=p1ulv9119.1.2.3 kV=0.48 Vminpu=0.8 Vmaxpu=1.2 model=1 kW=137.4397628609022 kvar=58.28595158733311 Phases=3 yearly=com_kw_13949_pu

New Load.load_p1ulv9121 conn=wye bus1=p1ulv9121.1.2.3 kV=0.48 Vminpu=0.8 Vmaxpu=1.2 model=1 kW=17.385566234580132 kvar=4.473438171780322 Phases=3 yearly=com_kw_14420_pu

New Load.load_p1ulv9122 conn=wye bus1=p1ulv9122.1.2.3 kV=0.48 Vminpu=0.8 Vmaxpu=1.2 model=1 kW=36.4625269315931 kvar=11.519228571653503 Phases=3 yearly=com_kw_12847_pu

New Load.load_p1ulv9123 conn=wye bus1=p1ulv9123.1.2.3 kV=0.48 Vminpu=0.8 Vmaxpu=1.2 model=1 kW=36.50723669611415 kvar=5.711557870450742 Phases=3 yearly=com_kw_14802_pu

New Load.load_p1ulv9124 conn=wye bus1=p1ulv9124.1.2.3 kV=0.48 Vminpu=0.8 Vmaxpu=1.2 model=1 kW=17.430917506218687 kvar=4.600264148702427 Phases=3 yearly=com_kw_13425_pu

New Load.load_p1ulv9125_1 conn=wye bus1=p1ulv9125.1 kV=0.12 Vminpu=0.8 Vmaxpu=1.2 model=1 kW=9.358521499301396 kvar=0.9436008203397507 Phases=1 yearly=com_kw_12824_pu

New Load.load_p1ulv9125_2 conn=wye bus1=p1ulv9125.2 kV=0.12 Vminpu=0.8 Vmaxpu=1.2 model=1 kW=9.358521499301396 kvar=0.9436008203397507 Phases=1 yearly=com_kw_12824_pu

New Load.load_p1ulv9126_1 conn=wye bus1=p1ulv9126.1 kV=0.12 Vminpu=0.8 Vmaxpu=1.2 model=1 kW=8.247397600936383 kvar=1.7600285215209255 Phases=1 yearly=com_kw_12857_pu

New Load.load_p1ulv9126_2 conn=wye bus1=p1ulv9126.2 kV=0.12 Vminpu=0.8 Vmaxpu=1.2 model=1 kW=8.247397600936383 kvar=1.7600285215209255 Phases=1 yearly=com_kw_12857_pu

New Load.load_p1ulv9127_1 conn=wye bus1=p1ulv9126.1 kV=0.12 Vminpu=0.8 Vmaxpu=1.2 model=1 kW=5.1496269559453545 kvar=1.5323145223091108 Phases=1 yearly=com_kw_14231_pu

New Load.load_p1ulv9127_2 conn=wye bus1=p1ulv9126.2 kV=0.12 Vminpu=0.8 Vmaxpu=1.2 model=1 kW=5.1496269559453545 kvar=1.5323145223091108 Phases=1 yearly=com_kw_14231_pu

New Load.load_p1ulv9128_1 conn=wye bus1=p1ulv9128.1 kV=0.12 Vminpu=0.8 Vmaxpu=1.2 model=1 kW=9.358521499301396 kvar=0.9436008203397507 Phases=1 yearly=com_kw_12824_pu

New Load.load_p1ulv9128_2 conn=wye bus1=p1ulv9128.2 kV=0.12 Vminpu=0.8 Vmaxpu=1.2 model=1 kW=9.358521499301396 kvar=0.9436008203397507 Phases=1 yearly=com_kw_12824_pu

New Load.load_p1ulv9129 conn=wye bus1=p1ulv9129.1.2.3 kV=0.48 Vminpu=0.8 Vmaxpu=1.2 model=1 kW=44.980986689605885 kvar=12.421510871870021 Phases=3 yearly=com_kw_13585_pu

New Load.load_p1ulv9130 conn=wye bus1=p1ulv9130.1.2.3 kV=0.48 Vminpu=0.8 Vmaxpu=1.2 model=1 kW=69.59171175074182 kvar=19.43567486908741 Phases=3 yearly=com_kw_13939_pu

New Load.load_p1ulv9131 conn=wye bus1=p1ulv9131.1.2.3 kV=0.48 Vminpu=0.8 Vmaxpu=1.2 model=1 kW=29.853488204921444 kvar=8.463163996052659 Phases=3 yearly=com_kw_13545_pu

New Load.load_p1ulv9132 conn=wye bus1=p1ulv9132.1.2.3 kV=0.48 Vminpu=0.8 Vmaxpu=1.2 model=1 kW=36.50723669611415 kvar=5.711557870450742 Phases=3 yearly=com_kw_14802_pu

New Load.load_p1ulv9133 conn=wye bus1=p1ulv9133.1.2.3 kV=0.48 Vminpu=0.8 Vmaxpu=1.2 model=1 kW=26.924251137251968 kvar=7.5580942801373014 Phases=3 yearly=com_kw_12992_pu

New Load.load_p1ulv9134 conn=wye bus1=p1ulv9134.1.2.3 kV=0.48 Vminpu=0.8 Vmaxpu=1.2 model=1 kW=37.26881725822426 kvar=9.074938884477675 Phases=3 yearly=com_kw_14502_pu

New Load.load_p1ulv9135_1 conn=wye bus1=p1ulv9135.1 kV=0.12 Vminpu=0.8 Vmaxpu=1.2 model=1 kW=13.793674087523804 kvar=0.8506323916315093 Phases=1 yearly=com_kw_14989_pu

New Load.load_p1ulv9135_2 conn=wye bus1=p1ulv9135.2 kV=0.12 Vminpu=0.8 Vmaxpu=1.2 model=1 kW=13.793674087523804 kvar=0.8506323916315093 Phases=1 yearly=com_kw_14989_pu

New Load.load_p1ulv9136 conn=wye bus1=p1ulv9136.1.2.3 kV=0.48 Vminpu=0.8 Vmaxpu=1.2 model=1 kW=37.06615996289137 kvar=0.636271427608 Phases=3 yearly=com_kw_14478_pu

New Load.load_p1ulv9137 conn=wye bus1=p1ulv9137.1.2.3 kV=0.48 Vminpu=0.8 Vmaxpu=1.2 model=1 kW=37.06615996289137 kvar=0.636271427608 Phases=3 yearly=com_kw_14478_pu

New Load.load_p1ulv9138_1 conn=wye bus1=p1ulv9138.1 kV=0.12 Vminpu=0.8 Vmaxpu=1.2 model=1 kW=13.793674087523804 kvar=0.8506323916315093 Phases=1 yearly=com_kw_14989_pu

New Load.load_p1ulv9138_2 conn=wye bus1=p1ulv9138.2 kV=0.12 Vminpu=0.8 Vmaxpu=1.2 model=1 kW=13.793674087523804 kvar=0.8506323916315093 Phases=1 yearly=com_kw_14989_pu

New Load.load_p1ulv9139 conn=wye bus1=p1ulv9139.1.2.3 kV=0.48 Vminpu=0.8 Vmaxpu=1.2 model=1 kW=44.29924208851033 kvar=1.6866628996772302 Phases=3 yearly=com_kw_12789_pu

New Load.load_p1ulv9140_1 conn=wye bus1=p1ulv9140.1 kV=0.12 Vminpu=0.8 Vmaxpu=1.2 model=1 kW=7.838257818376183 kvar=1.7746998372735319 Phases=1 yearly=com_kw_12884_pu

New Load.load_p1ulv9140_2 conn=wye bus1=p1ulv9140.2 kV=0.12 Vminpu=0.8 Vmaxpu=1.2 model=1 kW=7.838257818376183 kvar=1.7746998372735319 Phases=1 yearly=com_kw_12884_pu

New Load.load_p1ulv9141_1 conn=wye bus1=p1ulv9141.1 kV=0.12 Vminpu=0.8 Vmaxpu=1.2 model=1 kW=7.838257818376183 kvar=1.7746998372735319 Phases=1 yearly=com_kw_12884_pu

New Load.load_p1ulv9141_2 conn=wye bus1=p1ulv9141.2 kV=0.12 Vminpu=0.8 Vmaxpu=1.2 model=1 kW=7.838257818376183 kvar=1.7746998372735319 Phases=1 yearly=com_kw_12884_pu

New Load.load_p1ulv9142 conn=wye bus1=p1ulv9142.1.2.3 kV=0.48 Vminpu=0.8 Vmaxpu=1.2 model=1 kW=44.35837261883928 kvar=1.66152394986815 Phases=3 yearly=com_kw_14360_pu

New Load.load_p1ulv9143 conn=wye bus1=p1ulv9143.1.2.3 kV=0.48 Vminpu=0.8 Vmaxpu=1.2 model=1 kW=70.95836030073916 kvar=2.5089240380191487 Phases=3 yearly=com_kw_14533_pu

New Load.load_p1ulv9144 conn=wye bus1=p1ulv9144.1.2.3 kV=0.48 Vminpu=0.8 Vmaxpu=1.2 model=1 kW=36.50723669611415 kvar=5.711557870450742 Phases=3 yearly=com_kw_14802_pu

New Load.load_p1ulv9145_1 conn=wye bus1=p1ulv9145.1 kV=0.12 Vminpu=0.8 Vmaxpu=1.2 model=1 kW=5.1496269559453545 kvar=1.5323145223091108 Phases=1 yearly=com_kw_14231_pu

New Load.load_p1ulv9145_2 conn=wye bus1=p1ulv9145.2 kV=0.12 Vminpu=0.8 Vmaxpu=1.2 model=1 kW=5.1496269559453545 kvar=1.5323145223091108 Phases=1 yearly=com_kw_14231_pu

New Load.load_p1ulv9146 conn=wye bus1=p1ulv9146.1.2.3 kV=0.48 Vminpu=0.8 Vmaxpu=1.2 model=1 kW=47.91797841669134 kvar=15.127001754471541 Phases=3 yearly=com_kw_13043_pu

New Load.load_p1ulv9147 conn=wye bus1=p1ulv9147.1.2.3 kV=0.48 Vminpu=0.8 Vmaxpu=1.2 model=1 kW=32.794870513031285 kvar=9.33192689730137 Phases=3 yearly=com_kw_15266_pu

New Load.load_p1ulv9148_1 conn=wye bus1=p1ulv9148.1 kV=0.12 Vminpu=0.8 Vmaxpu=1.2 model=1 kW=9.358521499301396 kvar=0.9436008203397507 Phases=1 yearly=com_kw_12824_pu

New Load.load_p1ulv9148_2 conn=wye bus1=p1ulv9148.2 kV=0.12 Vminpu=0.8 Vmaxpu=1.2 model=1 kW=9.358521499301396 kvar=0.9436008203397507 Phases=1 yearly=com_kw_12824_pu

New Load.load_p1ulv9149_1 conn=wye bus1=p1ulv9149.1 kV=0.12 Vminpu=0.8 Vmaxpu=1.2 model=1 kW=9.358521499301396 kvar=0.9436008203397507 Phases=1 yearly=com_kw_12824_pu

New Load.load_p1ulv9149_2 conn=wye bus1=p1ulv9149.2 kV=0.12 Vminpu=0.8 Vmaxpu=1.2 model=1 kW=9.358521499301396 kvar=0.9436008203397507 Phases=1 yearly=com_kw_12824_pu

New Load.load_p1ulv9150_1 conn=wye bus1=p1ulv9150.1 kV=0.12 Vminpu=0.8 Vmaxpu=1.2 model=1 kW=9.358521499301396 kvar=0.9436008203397507 Phases=1 yearly=com_kw_12824_pu

New Load.load_p1ulv9150_2 conn=wye bus1=p1ulv9150.2 kV=0.12 Vminpu=0.8 Vmaxpu=1.2 model=1 kW=9.358521499301396 kvar=0.9436008203397507 Phases=1 yearly=com_kw_12824_pu

New Load.load_p1ulv9161 conn=wye bus1=p1ulv9161.1.2.3 kV=0.48 Vminpu=0.8 Vmaxpu=1.2 model=1 kW=41.42409878073634 kvar=8.509312570928536 Phases=3 yearly=com_kw_14340_pu

New Load.load_p1ulv9162 conn=wye bus1=p1ulv9162.1.2.3 kV=0.48 Vminpu=0.8 Vmaxpu=1.2 model=1 kW=104.96145459155349 kvar=10.546198737883932 Phases=3 yearly=com_kw_13066_pu

New Load.load_p1ulv9163 conn=wye bus1=p1ulv9163.1.2.3 kV=0.48 Vminpu=0.8 Vmaxpu=1.2 model=1 kW=53.878321298954866 kvar=11.693168667765793 Phases=3 yearly=com_kw_14580_pu

New Load.load_p1ulv9164 conn=wye bus1=p1ulv9164.1.2.3 kV=0.48 Vminpu=0.8 Vmaxpu=1.2 model=1 kW=26.28939793771888 kvar=8.13234037642059 Phases=3 yearly=com_kw_14013_pu

New Load.load_p1ulv9165_1 conn=wye bus1=p1ulv9165.1 kV=0.12 Vminpu=0.8 Vmaxpu=1.2 model=1 kW=3.0721844660900577 kvar=0.7060482494440881 Phases=1 yearly=com_kw_13303_pu

New Load.load_p1ulv9165_2 conn=wye bus1=p1ulv9165.2 kV=0.12 Vminpu=0.8 Vmaxpu=1.2 model=1 kW=3.0721844660900577 kvar=0.7060482494440881 Phases=1 yearly=com_kw_13303_pu

New Load.load_p1ulv9166_1 conn=wye bus1=p1ulv9166.1 kV=0.12 Vminpu=0.8 Vmaxpu=1.2 model=1 kW=5.1496269559453545 kvar=1.5323145223091108 Phases=1 yearly=com_kw_14231_pu

New Load.load_p1ulv9166_2 conn=wye bus1=p1ulv9166.2 kV=0.12 Vminpu=0.8 Vmaxpu=1.2 model=1 kW=5.1496269559453545 kvar=1.5323145223091108 Phases=1 yearly=com_kw_14231_pu

New Load.load_p1ulv9167_1 conn=wye bus1=p1ulv9167.1 kV=0.12 Vminpu=0.8 Vmaxpu=1.2 model=1 kW=4.081735511976485 kvar=0.9882394625849078 Phases=1 yearly=com_kw_14650_pu

New Load.load_p1ulv9167_2 conn=wye bus1=p1ulv9167.2 kV=0.12 Vminpu=0.8 Vmaxpu=1.2 model=1 kW=4.081735511976485 kvar=0.9882394625849078 Phases=1 yearly=com_kw_14650_pu

New Load.load_p1ulv9168_1 conn=wye bus1=p1ulv9167.1 kV=0.12 Vminpu=0.8 Vmaxpu=1.2 model=1 kW=2.4716999256380876 kvar=0.7079643646342628 Phases=1 yearly=com_kw_14407_pu

New Load.load_p1ulv9168_2 conn=wye bus1=p1ulv9167.2 kV=0.12 Vminpu=0.8 Vmaxpu=1.2 model=1 kW=2.4716999256380876 kvar=0.7079643646342628 Phases=1 yearly=com_kw_14407_pu

New Load.load_p1ulv9169_1 conn=wye bus1=p1ulv9169.1 kV=0.12 Vminpu=0.8 Vmaxpu=1.2 model=1 kW=4.066587428282395 kvar=0.7788614811484863 Phases=1 yearly=res_kw_887_pu

New Load.load_p1ulv9169_2 conn=wye bus1=p1ulv9169.2 kV=0.12 Vminpu=0.8 Vmaxpu=1.2 model=1 kW=4.066587428282395 kvar=0.7788614811484863 Phases=1 yearly=res_kw_887_pu

New Load.load_p1ulv9170_1 conn=wye bus1=p1ulv9170.1 kV=0.12 Vminpu=0.8 Vmaxpu=1.2 model=1 kW=2.605021030189827 kvar=1.0007509371876184 Phases=1 yearly=res_kw_24_pu

New Load.load_p1ulv9170_2 conn=wye bus1=p1ulv9170.2 kV=0.12 Vminpu=0.8 Vmaxpu=1.2 model=1 kW=2.605021030189827 kvar=1.0007509371876184 Phases=1 yearly=res_kw_24_pu

New Load.load_p1ulv9171_1 conn=wye bus1=p1ulv9170.1 kV=0.12 Vminpu=0.8 Vmaxpu=1.2 model=1 kW=2.1376631749204993 kvar=0.6218033466021168 Phases=1 yearly=res_kw_93_pu

New Load.load_p1ulv9171_2 conn=wye bus1=p1ulv9170.2 kV=0.12 Vminpu=0.8 Vmaxpu=1.2 model=1 kW=2.1376631749204993 kvar=0.6218033466021168 Phases=1 yearly=res_kw_93_pu

New Load.load_p1ulv9172_1 conn=wye bus1=p1ulv9172.1 kV=0.12 Vminpu=0.8 Vmaxpu=1.2 model=1 kW=2.605021030189827 kvar=1.0007509371876184 Phases=1 yearly=res_kw_24_pu

New Load.load_p1ulv9172_2 conn=wye bus1=p1ulv9172.2 kV=0.12 Vminpu=0.8 Vmaxpu=1.2 model=1 kW=2.605021030189827 kvar=1.0007509371876184 Phases=1 yearly=res_kw_24_pu

New Load.load_p1ulv9173_1 conn=wye bus1=p1ulv9172.1 kV=0.12 Vminpu=0.8 Vmaxpu=1.2 model=1 kW=1.8618983584330409 kvar=0.7337589993741062 Phases=1 yearly=res_kw_141_pu

New Load.load_p1ulv9173_2 conn=wye bus1=p1ulv9172.2 kV=0.12 Vminpu=0.8 Vmaxpu=1.2 model=1 kW=1.8618983584330409 kvar=0.7337589993741062 Phases=1 yearly=res_kw_141_pu

New Load.load_p1ulv9174_1 conn=wye bus1=p1ulv9174.1 kV=0.12 Vminpu=0.8 Vmaxpu=1.2 model=1 kW=2.6241521841182514 kvar=0.8429304779950015 Phases=1 yearly=res_kw_33_pu

New Load.load_p1ulv9174_2 conn=wye bus1=p1ulv9174.2 kV=0.12 Vminpu=0.8 Vmaxpu=1.2 model=1 kW=2.6241521841182514 kvar=0.8429304779950015 Phases=1 yearly=res_kw_33_pu

New Load.load_p1ulv9175_1 conn=wye bus1=p1ulv9169.1 kV=0.12 Vminpu=0.8 Vmaxpu=1.2 model=1 kW=2.1376631749204993 kvar=0.6218033466021168 Phases=1 yearly=res_kw_93_pu

New Load.load_p1ulv9175_2 conn=wye bus1=p1ulv9169.2 kV=0.12 Vminpu=0.8 Vmaxpu=1.2 model=1 kW=2.1376631749204993 kvar=0.6218033466021168 Phases=1 yearly=res_kw_93_pu

New Load.load_p1ulv9176_1 conn=wye bus1=p1ulv9176.1 kV=0.12 Vminpu=0.8 Vmaxpu=1.2 model=1 kW=2.1376631749204993 kvar=0.6218033466021168 Phases=1 yearly=res_kw_93_pu

New Load.load_p1ulv9176_2 conn=wye bus1=p1ulv9176.2 kV=0.12 Vminpu=0.8 Vmaxpu=1.2 model=1 kW=2.1376631749204993 kvar=0.6218033466021168 Phases=1 yearly=res_kw_93_pu

New Load.load_p1ulv9177_1 conn=wye bus1=p1ulv9176.1 kV=0.12 Vminpu=0.8 Vmaxpu=1.2 model=1 kW=2.658027342573646 kvar=0.9113625924854422 Phases=1 yearly=res_kw_1105_pu

New Load.load_p1ulv9177_2 conn=wye bus1=p1ulv9176.2 kV=0.12 Vminpu=0.8 Vmaxpu=1.2 model=1 kW=2.658027342573646 kvar=0.9113625924854422 Phases=1 yearly=res_kw_1105_pu

New Load.load_p1ulv9178_1 conn=wye bus1=p1ulv9178.1 kV=0.12 Vminpu=0.8 Vmaxpu=1.2 model=1 kW=2.605021030189827 kvar=1.0007509371876184 Phases=1 yearly=res_kw_24_pu

New Load.load_p1ulv9178_2 conn=wye bus1=p1ulv9178.2 kV=0.12 Vminpu=0.8 Vmaxpu=1.2 model=1 kW=2.605021030189827 kvar=1.0007509371876184 Phases=1 yearly=res_kw_24_pu

New Load.load_p1ulv9179 conn=wye bus1=p1ulv9179.1.2.3 kV=0.48 Vminpu=0.8 Vmaxpu=1.2 model=1 kW=253.16222139998118 kvar=18.868683832325765 Phases=3 yearly=com_kw_13891_pu

New Load.load_p1ulv9180 conn=wye bus1=p1ulv9180.1.2.3 kV=0.48 Vminpu=0.8 Vmaxpu=1.2 model=1 kW=37.06615996289137 kvar=0.636271427608 Phases=3 yearly=com_kw_14478_pu

New Load.load_p1ulv10825_1 conn=wye bus1=p1ulv10825.1 kV=0.12 Vminpu=0.8 Vmaxpu=1.2 model=1 kW=5.1496269559453545 kvar=1.5323145223091108 Phases=1 yearly=com_kw_14231_pu

New Load.load_p1ulv10825_2 conn=wye bus1=p1ulv10825.2 kV=0.12 Vminpu=0.8 Vmaxpu=1.2 model=1 kW=5.1496269559453545 kvar=1.5323145223091108 Phases=1 yearly=com_kw_14231_pu

New Load.load_p1ulv10826_1 conn=wye bus1=p1ulv10826.1 kV=0.12 Vminpu=0.8 Vmaxpu=1.2 model=1 kW=13.793674087523804 kvar=0.8506323916315093 Phases=1 yearly=com_kw_14989_pu

New Load.load_p1ulv10826_2 conn=wye bus1=p1ulv10826.2 kV=0.12 Vminpu=0.8 Vmaxpu=1.2 model=1 kW=13.793674087523804 kvar=0.8506323916315093 Phases=1 yearly=com_kw_14989_pu

New Load.load_p1ulv10827_1 conn=wye bus1=p1ulv10826.1 kV=0.12 Vminpu=0.8 Vmaxpu=1.2 model=1 kW=1.8413982632457628 kvar=0.4913074890993267 Phases=1 yearly=com_kw_13875_pu

New Load.load_p1ulv10827_2 conn=wye bus1=p1ulv10826.2 kV=0.12 Vminpu=0.8 Vmaxpu=1.2 model=1 kW=1.8413982632457628 kvar=0.4913074890993267 Phases=1 yearly=com_kw_13875_pu

New Load.load_p1ulv10828 conn=wye bus1=p1ulv10828.1.2.3 kV=0.48 Vminpu=0.8 Vmaxpu=1.2 model=1 kW=19.607915171145514 kvar=5.168221822813155 Phases=3 yearly=com_kw_15238_pu

New Load.load_p1ulv10829_1 conn=wye bus1=p1ulv10829.1 kV=0.12 Vminpu=0.8 Vmaxpu=1.2 model=1 kW=6.847378896370207 kvar=0.2857422414791666 Phases=1 yearly=com_kw_14382_pu

New Load.load_p1ulv10829_2 conn=wye bus1=p1ulv10829.2 kV=0.12 Vminpu=0.8 Vmaxpu=1.2 model=1 kW=6.847378896370207 kvar=0.2857422414791666 Phases=1 yearly=com_kw_14382_pu

New Load.load_p1ulv10830 conn=wye bus1=p1ulv10830.1.2.3 kV=0.48 Vminpu=0.8 Vmaxpu=1.2 model=1 kW=36.50723669611415 kvar=5.711557870450742 Phases=3 yearly=com_kw_14802_pu

New Load.load_p1ulv10831 conn=wye bus1=p1ulv10831.1.2.3 kV=0.48 Vminpu=0.8 Vmaxpu=1.2 model=1 kW=63.61577499495425 kvar=15.911129160629322 Phases=3 yearly=com_kw_14971_pu

New Load.load_p1ulv10832 conn=wye bus1=p1ulv10832.1.2.3 kV=0.48 Vminpu=0.8 Vmaxpu=1.2 model=1 kW=52.92904493300925 kvar=13.39480714795076 Phases=3 yearly=com_kw_13010_pu

New Load.load_p1ulv10833_1 conn=wye bus1=p1ulv10833.1 kV=0.12 Vminpu=0.8 Vmaxpu=1.2 model=1 kW=5.1496269559453545 kvar=1.5323145223091108 Phases=1 yearly=com_kw_14231_pu

New Load.load_p1ulv10833_2 conn=wye bus1=p1ulv10833.2 kV=0.12 Vminpu=0.8 Vmaxpu=1.2 model=1 kW=5.1496269559453545 kvar=1.5323145223091108 Phases=1 yearly=com_kw_14231_pu

New Load.load_p1ulv10834_1 conn=wye bus1=p1ulv10834.1 kV=0.12 Vminpu=0.8 Vmaxpu=1.2 model=1 kW=5.1496269559453545 kvar=1.5323145223091108 Phases=1 yearly=com_kw_14231_pu

New Load.load_p1ulv10834_2 conn=wye bus1=p1ulv10834.2 kV=0.12 Vminpu=0.8 Vmaxpu=1.2 model=1 kW=5.1496269559453545 kvar=1.5323145223091108 Phases=1 yearly=com_kw_14231_pu

New Load.load_p1ulv10835 conn=wye bus1=p1ulv10835.1.2.3 kV=0.48 Vminpu=0.8 Vmaxpu=1.2 model=1 kW=139.8917722207126 kvar=6.109246877535022 Phases=3 yearly=com_kw_14536_pu

New Load.load_p1ulv10836 conn=wye bus1=p1ulv10836.1.2.3 kV=0.48 Vminpu=0.8 Vmaxpu=1.2 model=1 kW=17.926626014133127 kvar=4.627433846537773 Phases=3 yearly=com_kw_15271_pu

New Load.load_p1ulv10883_1 conn=wye bus1=p1ulv10883.1 kV=0.12 Vminpu=0.8 Vmaxpu=1.2 model=1 kW=5.503617962261267 kvar=0.25931014748492 Phases=1 yearly=com_kw_14123_pu

New Load.load_p1ulv10883_2 conn=wye bus1=p1ulv10883.2 kV=0.12 Vminpu=0.8 Vmaxpu=1.2 model=1 kW=5.503617962261267 kvar=0.25931014748492 Phases=1 yearly=com_kw_14123_pu

New Load.load_p1ulv10884 conn=wye bus1=p1ulv10884.1.2.3 kV=0.48 Vminpu=0.8 Vmaxpu=1.2 model=1 kW=36.34419055562693 kvar=8.611444794393616 Phases=3 yearly=com_kw_13229_pu

New Load.load_p1ulv10885 conn=wye bus1=p1ulv10885.1.2.3 kV=0.48 Vminpu=0.8 Vmaxpu=1.2 model=1 kW=41.27726434904335 kvar=10.826959957077602 Phases=3 yearly=com_kw_13682_pu

New Load.load_p1ulv10886 conn=wye bus1=p1ulv10886.1.2.3 kV=0.48 Vminpu=0.8 Vmaxpu=1.2 model=1 kW=58.35347296284646 kvar=4.382567321495459 Phases=3 yearly=com_kw_13886_pu

New Load.load_p1ulv10887 conn=wye bus1=p1ulv10886.1.2.3 kV=0.48 Vminpu=0.8 Vmaxpu=1.2 model=1 kW=41.27726434904335 kvar=10.826959957077602 Phases=3 yearly=com_kw_13682_pu

New Load.load_p1ulv10888 conn=wye bus1=p1ulv10888.1.2.3 kV=0.48 Vminpu=0.8 Vmaxpu=1.2 model=1 kW=36.50723669611415 kvar=5.711557870450742 Phases=3 yearly=com_kw_14802_pu

New Load.load_p1umv21 conn=wye bus1=p1umv21.1.2.3 kV=12.47 Vminpu=0.8 Vmaxpu=1.2 model=1 kW=2092.5461330421726 kvar=121.21031878072554 Phases=3 yearly=com_kw_15149_pu

New Load.load_p1ulv10889 conn=wye bus1=p1ulv10889.1.2.3 kV=0.48 Vminpu=0.8 Vmaxpu=1.2 model=1 kW=158.69095860669978 kvar=48.23317350016857 Phases=3 yearly=com_kw_13777_pu

New Load.load_p1ulv10890_1 conn=wye bus1=p1ulv10890.1 kV=0.12 Vminpu=0.8 Vmaxpu=1.2 model=1 kW=5.1496269559453545 kvar=1.5323145223091108 Phases=1 yearly=com_kw_14231_pu

New Load.load_p1ulv10890_2 conn=wye bus1=p1ulv10890.2 kV=0.12 Vminpu=0.8 Vmaxpu=1.2 model=1 kW=5.1496269559453545 kvar=1.5323145223091108 Phases=1 yearly=com_kw_14231_pu

New Load.load_p1ulv10891 conn=wye bus1=p1ulv10891.1.2.3 kV=0.48 Vminpu=0.8 Vmaxpu=1.2 model=1 kW=253.16222139998118 kvar=18.868683832325765 Phases=3 yearly=com_kw_13891_pu

New Load.load_p1ulv10892 conn=wye bus1=p1ulv10892.1.2.3 kV=0.48 Vminpu=0.8 Vmaxpu=1.2 model=1 kW=25.30417501681602 kvar=7.179767776712684 Phases=3 yearly=com_kw_14809_pu

New Load.load_p1ulv11252 conn=wye bus1=p1ulv11252.1.2.3 kV=0.48 Vminpu=0.8 Vmaxpu=1.2 model=1 kW=20.34811553716727 kvar=4.467267472776305 Phases=3 yearly=com_kw_13526_pu

New Load.load_p1ulv14600_1 conn=wye bus1=p1ulv14600.1 kV=0.12 Vminpu=0.8 Vmaxpu=1.2 model=1 kW=19.63124272075125 kvar=0.6888461061237222 Phases=1 yearly=com_kw_14520_pu

New Load.load_p1ulv14600_2 conn=wye bus1=p1ulv14600.2 kV=0.12 Vminpu=0.8 Vmaxpu=1.2 model=1 kW=19.63124272075125 kvar=0.6888461061237222 Phases=1 yearly=com_kw_14520_pu

New Load.load_p1ulv19239_1 conn=wye bus1=p1ulv19239.1 kV=0.12 Vminpu=0.8 Vmaxpu=1.2 model=1 kW=3.013000258801837 kvar=0.6644912672412583 Phases=1 yearly=com_kw_13887_pu

New Load.load_p1ulv19239_2 conn=wye bus1=p1ulv19239.2 kV=0.12 Vminpu=0.8 Vmaxpu=1.2 model=1 kW=3.013000258801837 kvar=0.6644912672412583 Phases=1 yearly=com_kw_13887_pu

New Load.load_p1ulv19240_1 conn=wye bus1=p1ulv19240.1 kV=0.12 Vminpu=0.8 Vmaxpu=1.2 model=1 kW=3.013000258801837 kvar=0.6644912672412583 Phases=1 yearly=com_kw_13887_pu

New Load.load_p1ulv19240_2 conn=wye bus1=p1ulv19240.2 kV=0.12 Vminpu=0.8 Vmaxpu=1.2 model=1 kW=3.013000258801837 kvar=0.6644912672412583 Phases=1 yearly=com_kw_13887_pu

New Load.load_p1ulv19241_1 conn=wye bus1=p1ulv19241.1 kV=0.12 Vminpu=0.8 Vmaxpu=1.2 model=1 kW=6.847378896370207 kvar=0.2857422414791666 Phases=1 yearly=com_kw_14382_pu

New Load.load_p1ulv19241_2 conn=wye bus1=p1ulv19241.2 kV=0.12 Vminpu=0.8 Vmaxpu=1.2 model=1 kW=6.847378896370207 kvar=0.2857422414791666 Phases=1 yearly=com_kw_14382_pu

New Load.load_p1ulv19242_1 conn=wye bus1=p1ulv19242.1 kV=0.12 Vminpu=0.8 Vmaxpu=1.2 model=1 kW=6.847378896370207 kvar=0.2857422414791666 Phases=1 yearly=com_kw_14382_pu

New Load.load_p1ulv19242_2 conn=wye bus1=p1ulv19242.2 kV=0.12 Vminpu=0.8 Vmaxpu=1.2 model=1 kW=6.847378896370207 kvar=0.2857422414791666 Phases=1 yearly=com_kw_14382_pu

New Load.load_p1ulv19570 conn=wye bus1=p1ulv19570.1.2.3 kV=0.48 Vminpu=0.8 Vmaxpu=1.2 model=1 kW=18.532849804034885 kvar=4.462257683049261 Phases=3 yearly=com_kw_14127_pu

New Load.load_p1ulv19571_1 conn=wye bus1=p1ulv19571.1 kV=0.12 Vminpu=0.8 Vmaxpu=1.2 model=1 kW=13.251431311430247 kvar=0.1493407165487586 Phases=1 yearly=com_kw_14976_pu
