New Load.load_p1ulv3569 conn=wye bus1=p1ulv3569.1.2.3 kV=0.48 Vminpu=0.8 Vmaxpu=1.2 model=1 kW=26.68159866184279 kvar=3.6280255888985957 Phases=3 yearly=res_kw_59_pu

New Load.load_p1ulv3570 conn=wye bus1=p1ulv3570.1.2.3 kV=0.48 Vminpu=0.8 Vmaxpu=1.2 model=1 kW=58.5584510878998 kvar=7.3197203708758405 Phases=3 yearly=res_kw_860_pu

New Load.load_p1ulv3571_1 conn=wye bus1=p1ulv3571.1 kV=0.12 Vminpu=0.8 Vmaxpu=1.2 model=1 kW=7.259772519581312 kvar=1.3210086815250959 Phases=1 yearly=res_kw_128_pu

New Load.load_p1ulv3571_2 conn=wye bus1=p1ulv3571.2 kV=0.12 Vminpu=0.8 Vmaxpu=1.2 model=1 kW=7.259772519581312 kvar=1.3210086815250959 Phases=1 yearly=res_kw_128_pu

New Load.load_p1ulv3576 conn=wye bus1=p1ulv3576.1.2.3 kV=0.48 Vminpu=0.8 Vmaxpu=1.2 model=1 kW=64.0003040768543 kvar=15.85419090843042 Phases=3 yearly=res_kw_1074_pu

New Load.load_p1ulv3577 conn=wye bus1=p1ulv3577.1.2.3 kV=0.48 Vminpu=0.8 Vmaxpu=1.2 model=1 kW=43.87926783402615 kvar=1.667025482631209 Phases=3 yearly=res_kw_178_pu

New Load.load_p1ulv7253_1 conn=wye bus1=p1ulv7253.1 kV=0.12 Vminpu=0.8 Vmaxpu=1.2 model=1 kW=3.8748715750127736 kvar=1.5614372175332516 Phases=1 yearly=res_kw_517_pu

New Load.load_p1ulv7253_2 conn=wye bus1=p1ulv7253.2 kV=0.12 Vminpu=0.8 Vmaxpu=1.2 model=1 kW=3.8748715750127736 kvar=1.5614372175332516 Phases=1 yearly=res_kw_517_pu

New Load.load_p1ulv7254_1 conn=wye bus1=p1ulv7254.1 kV=0.12 Vminpu=0.8 Vmaxpu=1.2 model=1 kW=2.901745080312197 kvar=1.2924395298142213 Phases=1 yearly=res_kw_225_pu

New Load.load_p1ulv7254_2 conn=wye bus1=p1ulv7254.2 kV=0.12 Vminpu=0.8 Vmaxpu=1.2 model=1 kW=2.901745080312197 kvar=1.2924395298142213 Phases=1 yearly=res_kw_225_pu

New Load.load_p1ulv7255_1 conn=wye bus1=p1ulv7255.1 kV=0.12 Vminpu=0.8 Vmaxpu=1.2 model=1 kW=3.469755020859998 kvar=0.8941520384931253 Phases=1 yearly=res_kw_4_pu

New Load.load_p1ulv7255_2 conn=wye bus1=p1ulv7255.2 kV=0.12 Vminpu=0.8 Vmaxpu=1.2 model=1 kW=3.469755020859998 kvar=0.8941520384931253 Phases=1 yearly=res_kw_4_pu

New Load.load_p1ulv7256_1 conn=wye bus1=p1ulv7256.1 kV=0.12 Vminpu=0.8 Vmaxpu=1.2 model=1 kW=2.916803644387601 kvar=0.11499518252231355 Phases=1 yearly=res_kw_1094_pu

New Load.load_p1ulv7256_2 conn=wye bus1=p1ulv7256.2 kV=0.12 Vminpu=0.8 Vmaxpu=1.2 model=1 kW=2.916803644387601 kvar=0.11499518252231355 Phases=1 yearly=res_kw_1094_pu

New Load.load_p1ulv7257_1 conn=wye bus1=p1ulv7257.1 kV=0.12 Vminpu=0.8 Vmaxpu=1.2 model=1 kW=2.40000228705824 kvar=1.0173787262529668 Phases=1 yearly=res_kw_1205_pu

New Load.load_p1ulv7257_2 conn=wye bus1=p1ulv7257.2 kV=0.12 Vminpu=0.8 Vmaxpu=1.2 model=1 kW=2.40000228705824 kvar=1.0173787262529668 Phases=1 yearly=res_kw_1205_pu

New Load.load_p1ulv7259_1 conn=wye bus1=p1ulv7259.1 kV=0.12 Vminpu=0.8 Vmaxpu=1.2 model=1 kW=4.788649591238137 kvar=1.023651375705972 Phases=1 yearly=res_kw_512_pu

New Load.load_p1ulv7259_2 conn=wye bus1=p1ulv7259.2 kV=0.12 Vminpu=0.8 Vmaxpu=1.2 model=1 kW=4.788649591238137 kvar=1.023651375705972 Phases=1 yearly=res_kw_512_pu

New Load.load_p1ulv7260_1 conn=wye bus1=p1ulv7260.1 kV=0.12 Vminpu=0.8 Vmaxpu=1.2 model=1 kW=2.9178485115923896 kvar=1.0715119122844614 Phases=1 yearly=res_kw_1149_pu

New Load.load_p1ulv7260_2 conn=wye bus1=p1ulv7260.2 kV=0.12 Vminpu=0.8 Vmaxpu=1.2 model=1 kW=2.9178485115923896 kvar=1.0715119122844614 Phases=1 yearly=res_kw_1149_pu

New Load.load_p1ulv7261_1 conn=wye bus1=p1ulv7261.1 kV=0.12 Vminpu=0.8 Vmaxpu=1.2 model=1 kW=5.286987923172412 kvar=0.912918656895422 Phases=1 yearly=res_kw_75_pu

New Load.load_p1ulv7261_2 conn=wye bus1=p1ulv7261.2 kV=0.12 Vminpu=0.8 Vmaxpu=1.2 model=1 kW=5.286987923172412 kvar=0.912918656895422 Phases=1 yearly=res_kw_75_pu

New Load.load_p1ulv7263_1 conn=wye bus1=p1ulv7263.1 kV=0.12 Vminpu=0.8 Vmaxpu=1.2 model=1 kW=1.6746299650392789 kvar=0.594727774010976 Phases=1 yearly=res_kw_1276_pu

New Load.load_p1ulv7263_2 conn=wye bus1=p1ulv7263.2 kV=0.12 Vminpu=0.8 Vmaxpu=1.2 model=1 kW=1.6746299650392789 kvar=0.594727774010976 Phases=1 yearly=res_kw_1276_pu

New Load.load_p1ulv7264_1 conn=wye bus1=p1ulv7264.1 kV=0.12 Vminpu=0.8 Vmaxpu=1.2 model=1 kW=5.436729579526792 kvar=1.2488470964899614 Phases=1 yearly=res_kw_454_pu

New Load.load_p1ulv7264_2 conn=wye bus1=p1ulv7264.2 kV=0.12 Vminpu=0.8 Vmaxpu=1.2 model=1 kW=5.436729579526792 kvar=1.2488470964899614 Phases=1 yearly=res_kw_454_pu

New Load.load_p1ulv7265_1 conn=wye bus1=p1ulv7265.1 kV=0.12 Vminpu=0.8 Vmaxpu=1.2 model=1 kW=4.505900280832392 kvar=0.6729743583292512 Phases=1 yearly=res_kw_453_pu

New Load.load_p1ulv7265_2 conn=wye bus1=p1ulv7265.2 kV=0.12 Vminpu=0.8 Vmaxpu=1.2 model=1 kW=4.505900280832392 kvar=0.6729743583292512 Phases=1 yearly=res_kw_453_pu

New Load.load_p1ulv7266_1 conn=wye bus1=p1ulv7266.1 kV=0.12 Vminpu=0.8 Vmaxpu=1.2 model=1 kW=2.4402285312138985 kvar=0.9342273883677934 Phases=1 yearly=res_kw_409_pu

New Load.load_p1ulv7266_2 conn=wye bus1=p1ulv7266.2 kV=0.12 Vminpu=0.8 Vmaxpu=1.2 model=1 kW=2.4402285312138985 kvar=0.9342273883677934 Phases=1 yearly=res_kw_409_pu

New Load.load_p1ulv7267_1 conn=wye bus1=p1ulv7267.1 kV=0.12 Vminpu=0.8 Vmaxpu=1.2 model=1 kW=2.9898249364160714 kvar=0.2983164502279761 Phases=1 yearly=res_kw_1070_pu

New Load.load_p1ulv7267_2 conn=wye bus1=p1ulv7267.2 kV=0.12 Vminpu=0.8 Vmaxpu=1.2 model=1 kW=2.9898249364160714 kvar=0.2983164502279761 Phases=1 yearly=res_kw_1070_pu

New Load.load_p1ulv7387 conn=wye bus1=p1ulv7387.1.2.3 kV=0.48 Vminpu=0.8 Vmaxpu=1.2 model=1 kW=161.5999192745797 kvar=7.48984663235408 Phases=3 yearly=com_kw_14266_pu

New Load.load_p1ulv7701 conn=wye bus1=p1ulv7701.1.2.3 kV=0.48 Vminpu=0.8 Vmaxpu=1.2 model=1 kW=26.38984917731413 kvar=1.0281778012855651 Phases=3 yearly=res_kw_268_pu

New Load.load_p1ulv8051_1 conn=wye bus1=p1ulv8051.1 kV=0.12 Vminpu=0.8 Vmaxpu=1.2 model=1 kW=5.436729579526792 kvar=1.2488470964899614 Phases=1 yearly=res_kw_454_pu

New Load.load_p1ulv8051_2 conn=wye bus1=p1ulv8051.2 kV=0.12 Vminpu=0.8 Vmaxpu=1.2 model=1 kW=5.436729579526792 kvar=1.2488470964899614 Phases=1 yearly=res_kw_454_pu

New Load.load_p1ulv8052_1 conn=wye bus1=p1ulv8052.1 kV=0.12 Vminpu=0.8 Vmaxpu=1.2 model=1 kW=4.817618468644212 kvar=1.1350426223715635 Phases=1 yearly=res_kw_843_pu

New Load.load_p1ulv8052_2 conn=wye bus1=p1ulv8052.2 kV=0.12 Vminpu=0.8 Vmaxpu=1.2 model=1 kW=4.817618468644212 kvar=1.1350426223715635 Phases=1 yearly=res_kw_843_pu

New Load.load_p1ulv8053_1 conn=wye bus1=p1ulv8053.1 kV=0.12 Vminpu=0.8 Vmaxpu=1.2 model=1 kW=6.294621884355657 kvar=1.2961288323966025 Phases=1 yearly=res_kw_689_pu

New Load.load_p1ulv8053_2 conn=wye bus1=p1ulv8053.2 kV=0.12 Vminpu=0.8 Vmaxpu=1.2 model=1 kW=6.294621884355657 kvar=1.2961288323966025 Phases=1 yearly=res_kw_689_pu

New Load.load_p1ulv8054_1 conn=wye bus1=p1ulv8054.1 kV=0.12 Vminpu=0.8 Vmaxpu=1.2 model=1 kW=5.927737313300522 kvar=2.018482424064332 Phases=1 yearly=res_kw_38_pu

New Load.load_p1ulv8054_2 conn=wye bus1=p1ulv8054.2 kV=0.12 Vminpu=0.8 Vmaxpu=1.2 model=1 kW=5.927737313300522 kvar=2.018482424064332 Phases=1 yearly=res_kw_38_pu

New Load.load_p1ulv8055_1 conn=wye bus1=p1ulv8055.1 kV=0.12 Vminpu=0.8 Vmaxpu=1.2 model=1 kW=6.727252203449795 kvar=1.9067277455995406 Phases=1 yearly=res_kw_822_pu

New Load.load_p1ulv8055_2 conn=wye bus1=p1ulv8055.2 kV=0.12 Vminpu=0.8 Vmaxpu=1.2 model=1 kW=6.727252203449795 kvar=1.9067277455995406 Phases=1 yearly=res_kw_822_pu

New Load.load_p1ulv8056_1 conn=wye bus1=p1ulv8056.1 kV=0.12 Vminpu=0.8 Vmaxpu=1.2 model=1 kW=9.341738473663403 kvar=2.018548151169967 Phases=1 yearly=res_kw_504_pu

New Load.load_p1ulv8056_2 conn=wye bus1=p1ulv8056.2 kV=0.12 Vminpu=0.8 Vmaxpu=1.2 model=1 kW=9.341738473663403 kvar=2.018548151169967 Phases=1 yearly=res_kw_504_pu

New Load.load_p1ulv8059_1 conn=wye bus1=p1ulv8059.1 kV=0.12 Vminpu=0.8 Vmaxpu=1.2 model=1 kW=3.6844020253442458 kvar=1.4451491397155931 Phases=1 yearly=res_kw_1258_pu

New Load.load_p1ulv8059_2 conn=wye bus1=p1ulv8059.2 kV=0.12 Vminpu=0.8 Vmaxpu=1.2 model=1 kW=3.6844020253442458 kvar=1.4451491397155931 Phases=1 yearly=res_kw_1258_pu

New Load.load_p1ulv8062_1 conn=wye bus1=p1ulv8062.1 kV=0.12 Vminpu=0.8 Vmaxpu=1.2 model=1 kW=9.013684226460969 kvar=2.441755156728454 Phases=1 yearly=res_kw_1128_pu

New Load.load_p1ulv8062_2 conn=wye bus1=p1ulv8062.2 kV=0.12 Vminpu=0.8 Vmaxpu=1.2 model=1 kW=9.013684226460969 kvar=2.441755156728454 Phases=1 yearly=res_kw_1128_pu

New Load.load_p1umv12 conn=wye bus1=p1umv12.1.2.3 kV=12.47 Vminpu=0.8 Vmaxpu=1.2 model=1 kW=448.8884029744792 kvar=99.40637589619847 Phases=3 yearly=res_kw_1180_pu

New Load.load_p1ulv8655_1 conn=wye bus1=p1ulv8655.1 kV=0.12 Vminpu=0.8 Vmaxpu=1.2 model=1 kW=3.963001053413761 kvar=0.9410786890170905 Phases=1 yearly=res_kw_1256_pu

New Load.load_p1ulv8655_2 conn=wye bus1=p1ulv8655.2 kV=0.12 Vminpu=0.8 Vmaxpu=1.2 model=1 kW=3.963001053413761 kvar=0.9410786890170905 Phases=1 yearly=res_kw_1256_pu

New Load.load_p1ulv8657_1 conn=wye bus1=p1ulv8657.1 kV=0.12 Vminpu=0.8 Vmaxpu=1.2 model=1 kW=2.9178485115923896 kvar=1.0715119122844614 Phases=1 yearly=res_kw_1149_pu

New Load.load_p1ulv8657_2 conn=wye bus1=p1ulv8657.2 kV=0.12 Vminpu=0.8 Vmaxpu=1.2 model=1 kW=2.9178485115923896 kvar=1.0715119122844614 Phases=1 yearly=res_kw_1149_pu

New Load.load_p1ulv8658_1 conn=wye bus1=p1ulv8658.1 kV=0.12 Vminpu=0.8 Vmaxpu=1.2 model=1 kW=4.792624300749482 kvar=1.1139407265067676 Phases=1 yearly=res_kw_898_pu

New Load.load_p1ulv8658_2 conn=wye bus1=p1ulv8658.2 kV=0.12 Vminpu=0.8 Vmaxpu=1.2 model=1 kW=4.792624300749482 kvar=1.1139407265067676 Phases=1 yearly=res_kw_898_pu

New Load.load_p1ulv8666_1 conn=wye bus1=p1ulv8666.1 kV=0.12 Vminpu=0.8 Vmaxpu=1.2 model=1 kW=7.259772519581312 kvar=1.3210086815250959 Phases=1 yearly=res_kw_128_pu

New Load.load_p1ulv8666_2 conn=wye bus1=p1ulv8666.2 kV=0.12 Vminpu=0.8 Vmaxpu=1.2 model=1 kW=7.259772519581312 kvar=1.3210086815250959 Phases=1 yearly=res_kw_128_pu

New Load.load_p1ulv8667_1 conn=wye bus1=p1ulv8667.1 kV=0.12 Vminpu=0.8 Vmaxpu=1.2 model=1 kW=2.9178485115923896 kvar=1.0715119122844614 Phases=1 yearly=res_kw_1149_pu

New Load.load_p1ulv8667_2 conn=wye bus1=p1ulv8667.2 kV=0.12 Vminpu=0.8 Vmaxpu=1.2 model=1 kW=2.9178485115923896 kvar=1.0715119122844614 Phases=1 yearly=res_kw_1149_pu

New Load.load_p1ulv8668_1 conn=wye bus1=p1ulv8668.1 kV=0.12 Vminpu=0.8 Vmaxpu=1.2 model=1 kW=3.963001053413761 kvar=0.9410786890170905 Phases=1 yearly=res_kw_1256_pu

New Load.load_p1ulv8668_2 conn=wye bus1=p1ulv8668.2 kV=0.12 Vminpu=0.8 Vmaxpu=1.2 model=1 kW=3.963001053413761 kvar=0.9410786890170905 Phases=1 yearly=res_kw_1256_pu

New Load.load_p1ulv8669_1 conn=wye bus1=p1ulv8669.1 kV=0.12 Vminpu=0.8 Vmaxpu=1.2 model=1 kW=3.963001053413761 kvar=0.9410786890170905 Phases=1 yearly=res_kw_1256_pu

New Load.load_p1ulv8669_2 conn=wye bus1=p1ulv8669.2 kV=0.12 Vminpu=0.8 Vmaxpu=1.2 model=1 kW=3.963001053413761 kvar=0.9410786890170905 Phases=1 yearly=res_kw_1256_pu

New Load.load_p1ulv8670_1 conn=wye bus1=p1ulv8670.1 kV=0.12 Vminpu=0.8 Vmaxpu=1.2 model=1 kW=9.591249211904968 kvar=2.0347748075499026 Phases=1 yearly=res_kw_319_pu

New Load.load_p1ulv8670_2 conn=wye bus1=p1ulv8670.2 kV=0.12 Vminpu=0.8 Vmaxpu=1.2 model=1 kW=9.591249211904968 kvar=2.0347748075499026 Phases=1 yearly=res_kw_319_pu

New Load.load_p1ulv8671_1 conn=wye bus1=p1ulv8671.1 kV=0.12 Vminpu=0.8 Vmaxpu=1.2 model=1 kW=5.286987923172412 kvar=0.912918656895422 Phases=1 yearly=res_kw_75_pu

New Load.load_p1ulv8671_2 conn=wye bus1=p1ulv8671.2 kV=0.12 Vminpu=0.8 Vmaxpu=1.2 model=1 kW=5.286987923172412 kvar=0.912918656895422 Phases=1 yearly=res_kw_75_pu

New Load.load_p1ulv8672_1 conn=wye bus1=p1ulv8672.1 kV=0.12 Vminpu=0.8 Vmaxpu=1.2 model=1 kW=11.457721527492426 kvar=1.3801854390555242 Phases=1 yearly=res_kw_861_pu

New Load.load_p1ulv8672_2 conn=wye bus1=p1ulv8672.2 kV=0.12 Vminpu=0.8 Vmaxpu=1.2 model=1 kW=11.457721527492426 kvar=1.3801854390555242 Phases=1 yearly=res_kw_861_pu

New Load.load_p1ulv8673_1 conn=wye bus1=p1ulv8673.1 kV=0.12 Vminpu=0.8 Vmaxpu=1.2 model=1 kW=4.615759315917863 kvar=1.2136246618425777 Phases=1 yearly=res_kw_1190_pu

New Load.load_p1ulv8673_2 conn=wye bus1=p1ulv8673.2 kV=0.12 Vminpu=0.8 Vmaxpu=1.2 model=1 kW=4.615759315917863 kvar=1.2136246618425777 Phases=1 yearly=res_kw_1190_pu

New Load.load_p1ulv8823_1 conn=wye bus1=p1ulv8823.1 kV=0.12 Vminpu=0.8 Vmaxpu=1.2 model=1 kW=3.963001053413761 kvar=0.9410786890170905 Phases=1 yearly=res_kw_1256_pu

New Load.load_p1ulv8823_2 conn=wye bus1=p1ulv8823.2 kV=0.12 Vminpu=0.8 Vmaxpu=1.2 model=1 kW=3.963001053413761 kvar=0.9410786890170905 Phases=1 yearly=res_kw_1256_pu

New Load.load_p1ulv8824_1 conn=wye bus1=p1ulv8824.1 kV=0.12 Vminpu=0.8 Vmaxpu=1.2 model=1 kW=5.096103123058755 kvar=1.3322353354704013 Phases=1 yearly=com_kw_13793_pu

New Load.load_p1ulv8824_2 conn=wye bus1=p1ulv8824.2 kV=0.12 Vminpu=0.8 Vmaxpu=1.2 model=1 kW=5.096103123058755 kvar=1.3322353354704013 Phases=1 yearly=com_kw_13793_pu

New Load.load_p1ulv8825_1 conn=wye bus1=p1ulv8825.1 kV=0.12 Vminpu=0.8 Vmaxpu=1.2 model=1 kW=2.40000228705824 kvar=1.0173787262529668 Phases=1 yearly=res_kw_1205_pu

New Load.load_p1ulv8825_2 conn=wye bus1=p1ulv8825.2 kV=0.12 Vminpu=0.8 Vmaxpu=1.2 model=1 kW=2.40000228705824 kvar=1.0173787262529668 Phases=1 yearly=res_kw_1205_pu

New Load.load_p1ulv8826 conn=wye bus1=p1ulv8826.1.2.3 kV=0.48 Vminpu=0.8 Vmaxpu=1.2 model=1 kW=408.5425195897842 kvar=114.23392096388957 Phases=3 yearly=com_kw_13096_pu

New Load.load_p1ulv8827_1 conn=wye bus1=p1ulv8827.1 kV=0.12 Vminpu=0.8 Vmaxpu=1.2 model=1 kW=7.124066360548321 kvar=2.1644254103938056 Phases=1 yearly=com_kw_14450_pu

New Load.load_p1ulv8827_2 conn=wye bus1=p1ulv8827.2 kV=0.12 Vminpu=0.8 Vmaxpu=1.2 model=1 kW=7.124066360548321 kvar=2.1644254103938056 Phases=1 yearly=com_kw_14450_pu

New Load.load_p1ulv8828 conn=wye bus1=p1ulv8828.1.2.3 kV=0.48 Vminpu=0.8 Vmaxpu=1.2 model=1 kW=40.51544639758811 kvar=2.8677851581932345 Phases=3 yearly=com_kw_14754_pu

New Load.load_p1ulv8829 conn=wye bus1=p1ulv8829.1.2.3 kV=0.48 Vminpu=0.8 Vmaxpu=1.2 model=1 kW=177.35593340914244 kvar=55.63579249289259 Phases=3 yearly=com_kw_12942_pu

New Load.load_p1ulv8830_1 conn=wye bus1=p1ulv8830.1 kV=0.12 Vminpu=0.8 Vmaxpu=1.2 model=1 kW=5.772542794999576 kvar=1.567391340346068 Phases=1 yearly=com_kw_14137_pu

New Load.load_p1ulv8830_2 conn=wye bus1=p1ulv8830.2 kV=0.12 Vminpu=0.8 Vmaxpu=1.2 model=1 kW=5.772542794999576 kvar=1.567391340346068 Phases=1 yearly=com_kw_14137_pu

New Load.load_p1ulv8833_1 conn=wye bus1=p1ulv8833.1 kV=0.12 Vminpu=0.8 Vmaxpu=1.2 model=1 kW=4.6809104122908005 kvar=1.187363895186281 Phases=1 yearly=res_kw_1187_pu

New Load.load_p1ulv8833_2 conn=wye bus1=p1ulv8833.2 kV=0.12 Vminpu=0.8 Vmaxpu=1.2 model=1 kW=4.6809104122908005 kvar=1.187363895186281 Phases=1 yearly=res_kw_1187_pu

New Load.load_p1ulv8838_1 conn=wye bus1=p1ulv8838.1 kV=0.12 Vminpu=0.8 Vmaxpu=1.2 model=1 kW=7.259772519581312 kvar=1.3210086815250959 Phases=1 yearly=res_kw_128_pu

New Load.load_p1ulv8838_2 conn=wye bus1=p1ulv8838.2 kV=0.12 Vminpu=0.8 Vmaxpu=1.2 model=1 kW=7.259772519581312 kvar=1.3210086815250959 Phases=1 yearly=res_kw_128_pu

New Load.load_p1ulv8839_1 conn=wye bus1=p1ulv8839.1 kV=0.12 Vminpu=0.8 Vmaxpu=1.2 model=1 kW=6.727252203449795 kvar=1.9067277455995406 Phases=1 yearly=res_kw_822_pu

New Load.load_p1ulv8839_2 conn=wye bus1=p1ulv8839.2 kV=0.12 Vminpu=0.8 Vmaxpu=1.2 model=1 kW=6.727252203449795 kvar=1.9067277455995406 Phases=1 yearly=res_kw_822_pu

New Load.load_p1ulv8840_1 conn=wye bus1=p1ulv8840.1 kV=0.12 Vminpu=0.8 Vmaxpu=1.2 model=1 kW=4.315153527476089 kvar=1.1500690460008876 Phases=1 yearly=res_kw_305_pu

New Load.load_p1ulv8840_2 conn=wye bus1=p1ulv8840.2 kV=0.12 Vminpu=0.8 Vmaxpu=1.2 model=1 kW=4.315153527476089 kvar=1.1500690460008876 Phases=1 yearly=res_kw_305_pu

New Load.load_p1ulv8841_1 conn=wye bus1=p1ulv8841.1 kV=0.12 Vminpu=0.8 Vmaxpu=1.2 model=1 kW=9.341738473663403 kvar=2.018548151169967 Phases=1 yearly=res_kw_504_pu

New Load.load_p1ulv8841_2 conn=wye bus1=p1ulv8841.2 kV=0.12 Vminpu=0.8 Vmaxpu=1.2 model=1 kW=9.341738473663403 kvar=2.018548151169967 Phases=1 yearly=res_kw_504_pu

New Load.load_p1ulv8842_1 conn=wye bus1=p1ulv8842.1 kV=0.12 Vminpu=0.8 Vmaxpu=1.2 model=1 kW=3.2343189489605777 kvar=0.7028139292118596 Phases=1 yearly=res_kw_520_pu

New Load.load_p1ulv8842_2 conn=wye bus1=p1ulv8842.2 kV=0.12 Vminpu=0.8 Vmaxpu=1.2 model=1 kW=3.2343189489605777 kvar=0.7028139292118596 Phases=1 yearly=res_kw_520_pu

New Load.load_p1ulv8843_1 conn=wye bus1=p1ulv8843.1 kV=0.12 Vminpu=0.8 Vmaxpu=1.2 model=1 kW=2.9178485115923896 kvar=1.0715119122844614 Phases=1 yearly=res_kw_1149_pu

New Load.load_p1ulv8843_2 conn=wye bus1=p1ulv8843.2 kV=0.12 Vminpu=0.8 Vmaxpu=1.2 model=1 kW=2.9178485115923896 kvar=1.0715119122844614 Phases=1 yearly=res_kw_1149_pu

New Load.load_p1ulv9754_1 conn=wye bus1=p1ulv9754.1 kV=0.12 Vminpu=0.8 Vmaxpu=1.2 model=1 kW=7.259772519581312 kvar=1.3210086815250959 Phases=1 yearly=res_kw_128_pu

New Load.load_p1ulv9754_2 conn=wye bus1=p1ulv9754.2 kV=0.12 Vminpu=0.8 Vmaxpu=1.2 model=1 kW=7.259772519581312 kvar=1.3210086815250959 Phases=1 yearly=res_kw_128_pu

New Load.load_p1ulv9755_1 conn=wye bus1=p1ulv9755.1 kV=0.12 Vminpu=0.8 Vmaxpu=1.2 model=1 kW=5.436729579526792 kvar=1.2488470964899614 Phases=1 yearly=res_kw_454_pu

New Load.load_p1ulv9755_2 conn=wye bus1=p1ulv9755.2 kV=0.12 Vminpu=0.8 Vmaxpu=1.2 model=1 kW=5.436729579526792 kvar=1.2488470964899614 Phases=1 yearly=res_kw_454_pu

New Load.load_p1ulv9756_1 conn=wye bus1=p1ulv9756.1 kV=0.12 Vminpu=0.8 Vmaxpu=1.2 model=1 kW=7.721615461137303 kvar=1.7536039230317741 Phases=1 yearly=res_kw_1013_pu

New Load.load_p1ulv9756_2 conn=wye bus1=p1ulv9756.2 kV=0.12 Vminpu=0.8 Vmaxpu=1.2 model=1 kW=7.721615461137303 kvar=1.7536039230317741 Phases=1 yearly=res_kw_1013_pu

New Load.load_p1ulv9757_1 conn=wye bus1=p1ulv9757.1 kV=0.12 Vminpu=0.8 Vmaxpu=1.2 model=1 kW=4.792624300749482 kvar=1.1139407265067676 Phases=1 yearly=res_kw_898_pu

New Load.load_p1ulv9757_2 conn=wye bus1=p1ulv9757.2 kV=0.12 Vminpu=0.8 Vmaxpu=1.2 model=1 kW=4.792624300749482 kvar=1.1139407265067676 Phases=1 yearly=res_kw_898_pu

New Load.load_p1ulv9758_1 conn=wye bus1=p1ulv9758.1 kV=0.12 Vminpu=0.8 Vmaxpu=1.2 model=1 kW=7.259772519581312 kvar=1.3210086815250959 Phases=1 yearly=res_kw_128_pu

New Load.load_p1ulv9758_2 conn=wye bus1=p1ulv9758.2 kV=0.12 Vminpu=0.8 Vmaxpu=1.2 model=1 kW=7.259772519581312 kvar=1.3210086815250959 Phases=1 yearly=res_kw_128_pu

New Load.load_p1ulv9759_1 conn=wye bus1=p1ulv9759.1 kV=0.12 Vminpu=0.8 Vmaxpu=1.2 model=1 kW=5.020630418662337 kvar=1.4660260271132275 Phases=1 yearly=res_kw_664_pu

New Load.load_p1ulv9759_2 conn=wye bus1=p1ulv9759.2 kV=0.12 Vminpu=0.8 Vmaxpu=1.2 model=1 kW=5.020630418662337 kvar=1.4660260271132275 Phases=1 yearly=res_kw_664_pu

New Load.load_p1ulv9760_1 conn=wye bus1=p1ulv9760.1 kV=0.12 Vminpu=0.8 Vmaxpu=1.2 model=1 kW=9.666699253995569 kvar=2.090221480167897 Phases=1 yearly=res_kw_46_pu

New Load.load_p1ulv9760_2 conn=wye bus1=p1ulv9760.2 kV=0.12 Vminpu=0.8 Vmaxpu=1.2 model=1 kW=9.666699253995569 kvar=2.090221480167897 Phases=1 yearly=res_kw_46_pu

New Load.load_p1ulv9761_1 conn=wye bus1=p1ulv9761.1 kV=0.12 Vminpu=0.8 Vmaxpu=1.2 model=1 kW=4.792624300749482 kvar=1.1139407265067676 Phases=1 yearly=res_kw_898_pu

New Load.load_p1ulv9761_2 conn=wye bus1=p1ulv9761.2 kV=0.12 Vminpu=0.8 Vmaxpu=1.2 model=1 kW=4.792624300749482 kvar=1.1139407265067676 Phases=1 yearly=res_kw_898_pu

New Load.load_p1ulv9762_1 conn=wye bus1=p1ulv9762.1 kV=0.12 Vminpu=0.8 Vmaxpu=1.2 model=1 kW=6.139488924452324 kvar=1.0282575631325632 Phases=1 yearly=res_kw_421_pu

New Load.load_p1ulv9762_2 conn=wye bus1=p1ulv9762.2 kV=0.12 Vminpu=0.8 Vmaxpu=1.2 model=1 kW=6.139488924452324 kvar=1.0282575631325632 Phases=1 yearly=res_kw_421_pu

New Load.load_p1ulv9763_1 conn=wye bus1=p1ulv9763.1 kV=0.12 Vminpu=0.8 Vmaxpu=1.2 model=1 kW=6.224817813202313 kvar=1.7553010009693135 Phases=1 yearly=res_kw_710_pu

New Load.load_p1ulv9763_2 conn=wye bus1=p1ulv9763.2 kV=0.12 Vminpu=0.8 Vmaxpu=1.2 model=1 kW=6.224817813202313 kvar=1.7553010009693135 Phases=1 yearly=res_kw_710_pu

New Load.load_p1ulv9764_1 conn=wye bus1=p1ulv9764.1 kV=0.12 Vminpu=0.8 Vmaxpu=1.2 model=1 kW=2.456740089175818 kvar=0.4991709793701422 Phases=1 yearly=res_kw_331_pu

New Load.load_p1ulv9764_2 conn=wye bus1=p1ulv9764.2 kV=0.12 Vminpu=0.8 Vmaxpu=1.2 model=1 kW=2.456740089175818 kvar=0.4991709793701422 Phases=1 yearly=res_kw_331_pu

New Load.load_p1ulv9765_1 conn=wye bus1=p1ulv9765.1 kV=0.12 Vminpu=0.8 Vmaxpu=1.2 model=1 kW=5.166227040370808 kvar=0.941312930764753 Phases=1 yearly=res_kw_852_pu

New Load.load_p1ulv9765_2 conn=wye bus1=p1ulv9765.2 kV=0.12 Vminpu=0.8 Vmaxpu=1.2 model=1 kW=5.166227040370808 kvar=0.941312930764753 Phases=1 yearly=res_kw_852_pu

New Load.load_p1ulv9766_1 conn=wye bus1=p1ulv9766.1 kV=0.12 Vminpu=0.8 Vmaxpu=1.2 model=1 kW=3.6844020253442458 kvar=1.4451491397155931 Phases=1 yearly=res_kw_1258_pu

New Load.load_p1ulv9766_2 conn=wye bus1=p1ulv9766.2 kV=0.12 Vminpu=0.8 Vmaxpu=1.2 model=1 kW=3.6844020253442458 kvar=1.4451491397155931 Phases=1 yearly=res_kw_1258_pu

New Load.load_p1ulv9769_1 conn=wye bus1=p1ulv9769.1 kV=0.12 Vminpu=0.8 Vmaxpu=1.2 model=1 kW=10.375628907780863 kvar=4.616486224330442 Phases=1 yearly=res_kw_1267_pu

New Load.load_p1ulv9769_2 conn=wye bus1=p1ulv9769.2 kV=0.12 Vminpu=0.8 Vmaxpu=1.2 model=1 kW=10.375628907780863 kvar=4.616486224330442 Phases=1 yearly=res_kw_1267_pu

New Load.load_p1ulv9770_1 conn=wye bus1=p1ulv9770.1 kV=0.12 Vminpu=0.8 Vmaxpu=1.2 model=1 kW=5.436729579526792 kvar=1.2488470964899614 Phases=1 yearly=res_kw_454_pu

New Load.load_p1ulv9770_2 conn=wye bus1=p1ulv9770.2 kV=0.12 Vminpu=0.8 Vmaxpu=1.2 model=1 kW=5.436729579526792 kvar=1.2488470964899614 Phases=1 yearly=res_kw_454_pu

New Load.load_p1ulv9771_1 conn=wye bus1=p1ulv9771.1 kV=0.12 Vminpu=0.8 Vmaxpu=1.2 model=1 kW=5.436729579526792 kvar=1.2488470964899614 Phases=1 yearly=res_kw_454_pu

New Load.load_p1ulv9771_2 conn=wye bus1=p1ulv9771.2 kV=0.12 Vminpu=0.8 Vmaxpu=1.2 model=1 kW=5.436729579526792 kvar=1.2488470964899614 Phases=1 yearly=res_kw_454_pu

New Load.load_p1ulv9772_1 conn=wye bus1=p1ulv9772.1 kV=0.12 Vminpu=0.8 Vmaxpu=1.2 model=1 kW=11.457721527492426 kvar=1.3801854390555242 Phases=1 yearly=res_kw_861_pu

New Load.load_p1ulv9772_2 conn=wye bus1=p1ulv9772.2 kV=0.12 Vminpu=0.8 Vmaxpu=1.2 model=1 kW=11.457721527492426 kvar=1.3801854390555242 Phases=1 yearly=res_kw_861_pu

New Load.load_p1ulv9773_1 conn=wye bus1=p1ulv9773.1 kV=0.12 Vminpu=0.8 Vmaxpu=1.2 model=1 kW=7.259772519581312 kvar=1.3210086815250959 Phases=1 yearly=res_kw_128_pu

New Load.load_p1ulv9773_2 conn=wye bus1=p1ulv9773.2 kV=0.12 Vminpu=0.8 Vmaxpu=1.2 model=1 kW=7.259772519581312 kvar=1.3210086815250959 Phases=1 yearly=res_kw_128_pu

New Load.load_p1ulv9775_1 conn=wye bus1=p1ulv9775.1 kV=0.12 Vminpu=0.8 Vmaxpu=1.2 model=1 kW=9.666699253995569 kvar=2.090221480167897 Phases=1 yearly=res_kw_46_pu

New Load.load_p1ulv9775_2 conn=wye bus1=p1ulv9775.2 kV=0.12 Vminpu=0.8 Vmaxpu=1.2 model=1 kW=9.666699253995569 kvar=2.090221480167897 Phases=1 yearly=res_kw_46_pu

New Load.load_p1ulv9776_1 conn=wye bus1=p1ulv9776.1 kV=0.12 Vminpu=0.8 Vmaxpu=1.2 model=1 kW=4.4719654544990375 kvar=1.0992469987144322 Phases=1 yearly=res_kw_1157_pu

New Load.load_p1ulv9776_2 conn=wye bus1=p1ulv9776.2 kV=0.12 Vminpu=0.8 Vmaxpu=1.2 model=1 kW=4.4719654544990375 kvar=1.0992469987144322 Phases=1 yearly=res_kw_1157_pu

New Load.load_p1ulv9970 conn=wye bus1=p1ulv9970.1.2.3 kV=0.48 Vminpu=0.8 Vmaxpu=1.2 model=1 kW=220.9757494217886 kvar=59.61786656674792 Phases=3 yearly=com_kw_14490_pu

New Load.load_p1ulv9972_1 conn=wye bus1=p1ulv9972.1 kV=0.12 Vminpu=0.8 Vmaxpu=1.2 model=1 kW=1.8914832317680952 kvar=0.4701288429802831 Phases=1 yearly=com_kw_13018_pu

New Load.load_p1ulv9972_2 conn=wye bus1=p1ulv9972.2 kV=0.12 Vminpu=0.8 Vmaxpu=1.2 model=1 kW=1.8914832317680952 kvar=0.4701288429802831 Phases=1 yearly=com_kw_13018_pu

New Load.load_p1ulv9973 conn=wye bus1=p1ulv9973.1.2.3 kV=0.48 Vminpu=0.8 Vmaxpu=1.2 model=1 kW=102.83620489813865 kvar=36.81420938044198 Phases=3 yearly=com_kw_14822_pu

New Load.load_p1ulv9975_1 conn=wye bus1=p1ulv9975.1 kV=0.12 Vminpu=0.8 Vmaxpu=1.2 model=1 kW=7.37349224882364 kvar=2.1477907167331662 Phases=1 yearly=com_kw_14041_pu

New Load.load_p1ulv9975_2 conn=wye bus1=p1ulv9975.2 kV=0.12 Vminpu=0.8 Vmaxpu=1.2 model=1 kW=7.37349224882364 kvar=2.1477907167331662 Phases=1 yearly=com_kw_14041_pu

New Load.load_p1ulv9976 conn=wye bus1=p1ulv9976.1.2.3 kV=0.48 Vminpu=0.8 Vmaxpu=1.2 model=1 kW=96.98022607056483 kvar=4.112107653547226 Phases=3 yearly=com_kw_13501_pu

New Load.load_p1ulv9979 conn=wye bus1=p1ulv9979.1.2.3 kV=0.48 Vminpu=0.8 Vmaxpu=1.2 model=1 kW=102.83620489813865 kvar=36.81420938044198 Phases=3 yearly=com_kw_14822_pu

New Load.load_p1ulv9980_1 conn=wye bus1=p1ulv9980.1 kV=0.12 Vminpu=0.8 Vmaxpu=1.2 model=1 kW=7.0003341303773166 kvar=2.023804849695405 Phases=1 yearly=com_kw_13126_pu

New Load.load_p1ulv9980_2 conn=wye bus1=p1ulv9980.2 kV=0.12 Vminpu=0.8 Vmaxpu=1.2 model=1 kW=7.0003341303773166 kvar=2.023804849695405 Phases=1 yearly=com_kw_13126_pu

New Load.load_p1ulv9981 conn=wye bus1=p1ulv9981.1.2.3 kV=0.48 Vminpu=0.8 Vmaxpu=1.2 model=1 kW=102.83620489813865 kvar=36.81420938044198 Phases=3 yearly=com_kw_14822_pu

New Load.load_p1ulv9982 conn=wye bus1=p1ulv9982.1.2.3 kV=0.48 Vminpu=0.8 Vmaxpu=1.2 model=1 kW=102.83620489813865 kvar=36.81420938044198 Phases=3 yearly=com_kw_14822_pu

New Load.load_p1ulv9983 conn=wye bus1=p1ulv9983.1.2.3 kV=0.48 Vminpu=0.8 Vmaxpu=1.2 model=1 kW=177.35593340914244 kvar=55.63579249289259 Phases=3 yearly=com_kw_12942_pu

New Load.load_p1ulv9984 conn=wye bus1=p1ulv9984.1.2.3 kV=0.48 Vminpu=0.8 Vmaxpu=1.2 model=1 kW=102.83620489813865 kvar=36.81420938044198 Phases=3 yearly=com_kw_14822_pu

New Load.load_p1ulv9985_1 conn=wye bus1=p1ulv9985.1 kV=0.12 Vminpu=0.8 Vmaxpu=1.2 model=1 kW=5.907410264741591 kvar=0.4523952534922558 Phases=1 yearly=res_kw_872_pu

New Load.load_p1ulv9985_2 conn=wye bus1=p1ulv9985.2 kV=0.12 Vminpu=0.8 Vmaxpu=1.2 model=1 kW=5.907410264741591 kvar=0.4523952534922558 Phases=1 yearly=res_kw_872_pu

New Load.load_p1ulv9988_1 conn=wye bus1=p1ulv9988.1 kV=0.12 Vminpu=0.8 Vmaxpu=1.2 model=1 kW=8.079159783344064 kvar=1.1142789018779502 Phases=1 yearly=res_kw_779_pu

New Load.load_p1ulv9988_2 conn=wye bus1=p1ulv9988.2 kV=0.12 Vminpu=0.8 Vmaxpu=1.2 model=1 kW=8.079159783344064 kvar=1.1142789018779502 Phases=1 yearly=res_kw_779_pu

New Load.load_p1ulv10929_1 conn=wye bus1=p1ulv10929.1 kV=0.12 Vminpu=0.8 Vmaxpu=1.2 model=1 kW=9.666699253995569 kvar=2.090221480167897 Phases=1 yearly=res_kw_46_pu

New Load.load_p1ulv10929_2 conn=wye bus1=p1ulv10929.2 kV=0.12 Vminpu=0.8 Vmaxpu=1.2 model=1 kW=9.666699253995569 kvar=2.090221480167897 Phases=1 yearly=res_kw_46_pu

New Load.load_p1ulv11304_1 conn=wye bus1=p1ulv11304.1 kV=0.12 Vminpu=0.8 Vmaxpu=1.2 model=1 kW=5.436729579526792 kvar=1.2488470964899614 Phases=1 yearly=res_kw_454_pu

New Load.load_p1ulv11304_2 conn=wye bus1=p1ulv11304.2 kV=0.12 Vminpu=0.8 Vmaxpu=1.2 model=1 kW=5.436729579526792 kvar=1.2488470964899614 Phases=1 yearly=res_kw_454_pu

New Load.load_p1ulv11306_1 conn=wye bus1=p1ulv11306.1 kV=0.12 Vminpu=0.8 Vmaxpu=1.2 model=1 kW=2.40000228705824 kvar=1.0173787262529668 Phases=1 yearly=res_kw_1205_pu

New Load.load_p1ulv11306_2 conn=wye bus1=p1ulv11306.2 kV=0.12 Vminpu=0.8 Vmaxpu=1.2 model=1 kW=2.40000228705824 kvar=1.0173787262529668 Phases=1 yearly=res_kw_1205_pu

New Load.load_p1ulv11307_1 conn=wye bus1=p1ulv11307.1 kV=0.12 Vminpu=0.8 Vmaxpu=1.2 model=1 kW=2.6241521841182514 kvar=0.8429304779950015 Phases=1 yearly=res_kw_33_pu

New Load.load_p1ulv11307_2 conn=wye bus1=p1ulv11307.2 kV=0.12 Vminpu=0.8 Vmaxpu=1.2 model=1 kW=2.6241521841182514 kvar=0.8429304779950015 Phases=1 yearly=res_kw_33_pu

New Load.load_p1ulv11308_1 conn=wye bus1=p1ulv11308.1 kV=0.12 Vminpu=0.8 Vmaxpu=1.2 model=1 kW=11.457721527492426 kvar=1.3801854390555242 Phases=1 yearly=res_kw_861_pu

New Load.load_p1ulv11308_2 conn=wye bus1=p1ulv11308.2 kV=0.12 Vminpu=0.8 Vmaxpu=1.2 model=1 kW=11.457721527492426 kvar=1.3801854390555242 Phases=1 yearly=res_kw_861_pu

New Load.load_p1ulv11309_1 conn=wye bus1=p1ulv11309.1 kV=0.12 Vminpu=0.8 Vmaxpu=1.2 model=1 kW=5.121080771859233 kvar=1.1807848049623457 Phases=1 yearly=res_kw_691_pu

New Load.load_p1ulv11309_2 conn=wye bus1=p1ulv11309.2 kV=0.12 Vminpu=0.8 Vmaxpu=1.2 model=1 kW=5.121080771859233 kvar=1.1807848049623457 Phases=1 yearly=res_kw_691_pu

New Load.load_p1ulv11311_1 conn=wye bus1=p1ulv11311.1 kV=0.12 Vminpu=0.8 Vmaxpu=1.2 model=1 kW=1.1999161251108437 kvar=0.46029278685869546 Phases=1 yearly=res_kw_829_pu

New Load.load_p1ulv11311_2 conn=wye bus1=p1ulv11311.2 kV=0.12 Vminpu=0.8 Vmaxpu=1.2 model=1 kW=1.1999161251108437 kvar=0.46029278685869546 Phases=1 yearly=res_kw_829_pu

New Load.load_p1ulv11312_1 conn=wye bus1=p1ulv11312.1 kV=0.12 Vminpu=0.8 Vmaxpu=1.2 model=1 kW=5.574466357705123 kvar=1.0791692562247137 Phases=1 yearly=res_kw_1083_pu

New Load.load_p1ulv11312_2 conn=wye bus1=p1ulv11312.2 kV=0.12 Vminpu=0.8 Vmaxpu=1.2 model=1 kW=5.574466357705123 kvar=1.0791692562247137 Phases=1 yearly=res_kw_1083_pu

New Load.load_p1ulv11313 conn=wye bus1=p1ulv11313.1.2.3 kV=0.48 Vminpu=0.8 Vmaxpu=1.2 model=1 kW=31.56390894948716 kvar=5.59016195527881 Phases=3 yearly=res_kw_76_pu

New Load.load_p1ulv11314_1 conn=wye bus1=p1ulv11314.1 kV=0.12 Vminpu=0.8 Vmaxpu=1.2 model=1 kW=7.7578735794910925 kvar=1.9049941012910125 Phases=1 yearly=res_kw_863_pu

New Load.load_p1ulv11314_2 conn=wye bus1=p1ulv11314.2 kV=0.12 Vminpu=0.8 Vmaxpu=1.2 model=1 kW=7.7578735794910925 kvar=1.9049941012910125 Phases=1 yearly=res_kw_863_pu

New Load.load_p1ulv11315_1 conn=wye bus1=p1ulv11315.1 kV=0.12 Vminpu=0.8 Vmaxpu=1.2 model=1 kW=1.8636614682402992 kvar=0.5015179682387616 Phases=1 yearly=res_kw_532_pu

New Load.load_p1ulv11315_2 conn=wye bus1=p1ulv11315.2 kV=0.12 Vminpu=0.8 Vmaxpu=1.2 model=1 kW=1.8636614682402992 kvar=0.5015179682387616 Phases=1 yearly=res_kw_532_pu
