New Load.load_p1ulv3823_1 conn=wye bus1=p1ulv3823.1 kV=0.12 Vminpu=0.8 Vmaxpu=1.2 model=1 kW=2.3700113203165794 kvar=1.0419328311463634 Phases=1 yearly=res_kw_327_pu

New Load.load_p1ulv3823_2 conn=wye bus1=p1ulv3823.2 kV=0.12 Vminpu=0.8 Vmaxpu=1.2 model=1 kW=2.3700113203165794 kvar=1.0419328311463634 Phases=1 yearly=res_kw_327_pu

New Load.load_p1ulv3824_1 conn=wye bus1=p1ulv3824.1 kV=0.12 Vminpu=0.8 Vmaxpu=1.2 model=1 kW=4.255303740900178 kvar=1.3788619382740643 Phases=1 yearly=res_kw_332_pu

New Load.load_p1ulv3824_2 conn=wye bus1=p1ulv3824.2 kV=0.12 Vminpu=0.8 Vmaxpu=1.2 model=1 kW=4.255303740900178 kvar=1.3788619382740643 Phases=1 yearly=res_kw_332_pu

New Load.load_p1ulv3825_1 conn=wye bus1=p1ulv3825.1 kV=0.12 Vminpu=0.8 Vmaxpu=1.2 model=1 kW=4.255303740900178 kvar=1.3788619382740643 Phases=1 yearly=res_kw_332_pu

New Load.load_p1ulv3825_2 conn=wye bus1=p1ulv3825.2 kV=0.12 Vminpu=0.8 Vmaxpu=1.2 model=1 kW=4.255303740900178 kvar=1.3788619382740643 Phases=1 yearly=res_kw_332_pu

New Load.load_p1ulv3826_1 conn=wye bus1=p1ulv3825.1 kV=0.12 Vminpu=0.8 Vmaxpu=1.2 model=1 kW=2.3298924011300017 kvar=0.388795313922141 Phases=1 yearly=res_kw_41_pu

New Load.load_p1ulv3826_2 conn=wye bus1=p1ulv3825.2 kV=0.12 Vminpu=0.8 Vmaxpu=1.2 model=1 kW=2.3298924011300017 kvar=0.388795313922141 Phases=1 yearly=res_kw_41_pu

New Load.load_p1ulv3827_1 conn=wye bus1=p1ulv3827.1 kV=0.12 Vminpu=0.8 Vmaxpu=1.2 model=1 kW=3.2614858144948595 kvar=1.432421357457426 Phases=1 yearly=res_kw_431_pu

New Load.load_p1ulv3827_2 conn=wye bus1=p1ulv3827.2 kV=0.12 Vminpu=0.8 Vmaxpu=1.2 model=1 kW=3.2614858144948595 kvar=1.432421357457426 Phases=1 yearly=res_kw_431_pu

New Load.load_p1ulv3828_1 conn=wye bus1=p1ulv3828.1 kV=0.12 Vminpu=0.8 Vmaxpu=1.2 model=1 kW=2.3298924011300017 kvar=0.388795313922141 Phases=1 yearly=res_kw_41_pu

New Load.load_p1ulv3828_2 conn=wye bus1=p1ulv3828.2 kV=0.12 Vminpu=0.8 Vmaxpu=1.2 model=1 kW=2.3298924011300017 kvar=0.388795313922141 Phases=1 yearly=res_kw_41_pu

New Load.load_p1ulv3829_1 conn=wye bus1=p1ulv3829.1 kV=0.12 Vminpu=0.8 Vmaxpu=1.2 model=1 kW=3.2614858144948595 kvar=1.432421357457426 Phases=1 yearly=res_kw_431_pu

New Load.load_p1ulv3829_2 conn=wye bus1=p1ulv3829.2 kV=0.12 Vminpu=0.8 Vmaxpu=1.2 model=1 kW=3.2614858144948595 kvar=1.432421357457426 Phases=1 yearly=res_kw_431_pu

New Load.load_p1ulv3830_1 conn=wye bus1=p1ulv3830.1 kV=0.12 Vminpu=0.8 Vmaxpu=1.2 model=1 kW=4.255303740900178 kvar=1.3788619382740643 Phases=1 yearly=res_kw_332_pu

New Load.load_p1ulv3830_2 conn=wye bus1=p1ulv3830.2 kV=0.12 Vminpu=0.8 Vmaxpu=1.2 model=1 kW=4.255303740900178 kvar=1.3788619382740643 Phases=1 yearly=res_kw_332_pu

New Load.load_p1ulv3831_1 conn=wye bus1=p1ulv3831.1 kV=0.12 Vminpu=0.8 Vmaxpu=1.2 model=1 kW=4.255303740900178 kvar=1.3788619382740643 Phases=1 yearly=res_kw_332_pu

New Load.load_p1ulv3831_2 conn=wye bus1=p1ulv3831.2 kV=0.12 Vminpu=0.8 Vmaxpu=1.2 model=1 kW=4.255303740900178 kvar=1.3788619382740643 Phases=1 yearly=res_kw_332_pu

New Load.load_p1ulv3832_1 conn=wye bus1=p1ulv3832.1 kV=0.12 Vminpu=0.8 Vmaxpu=1.2 model=1 kW=2.252586941983099 kvar=1.0135983600233158 Phases=1 yearly=res_kw_853_pu

New Load.load_p1ulv3832_2 conn=wye bus1=p1ulv3832.2 kV=0.12 Vminpu=0.8 Vmaxpu=1.2 model=1 kW=2.252586941983099 kvar=1.0135983600233158 Phases=1 yearly=res_kw_853_pu

New Load.load_p1ulv3833_1 conn=wye bus1=p1ulv3833.1 kV=0.12 Vminpu=0.8 Vmaxpu=1.2 model=1 kW=4.255303740900178 kvar=1.3788619382740643 Phases=1 yearly=res_kw_332_pu

New Load.load_p1ulv3833_2 conn=wye bus1=p1ulv3833.2 kV=0.12 Vminpu=0.8 Vmaxpu=1.2 model=1 kW=4.255303740900178 kvar=1.3788619382740643 Phases=1 yearly=res_kw_332_pu

New Load.load_p1ulv3834_1 conn=wye bus1=p1ulv3834.1 kV=0.12 Vminpu=0.8 Vmaxpu=1.2 model=1 kW=4.255303740900178 kvar=1.3788619382740643 Phases=1 yearly=res_kw_332_pu

New Load.load_p1ulv3834_2 conn=wye bus1=p1ulv3834.2 kV=0.12 Vminpu=0.8 Vmaxpu=1.2 model=1 kW=4.255303740900178 kvar=1.3788619382740643 Phases=1 yearly=res_kw_332_pu

New Load.load_p1ulv3835_1 conn=wye bus1=p1ulv3835.1 kV=0.12 Vminpu=0.8 Vmaxpu=1.2 model=1 kW=1.4493292356011218 kvar=1.1002454873547782 Phases=1 yearly=res_kw_62_pu

New Load.load_p1ulv3835_2 conn=wye bus1=p1ulv3835.2 kV=0.12 Vminpu=0.8 Vmaxpu=1.2 model=1 kW=1.4493292356011218 kvar=1.1002454873547782 Phases=1 yearly=res_kw_62_pu

New Load.load_p1ulv3836_1 conn=wye bus1=p1ulv3836.1 kV=0.12 Vminpu=0.8 Vmaxpu=1.2 model=1 kW=0.17638855280953816 kvar=0.11785766630597205 Phases=1 yearly=res_kw_1229_pu

New Load.load_p1ulv3836_2 conn=wye bus1=p1ulv3836.2 kV=0.12 Vminpu=0.8 Vmaxpu=1.2 model=1 kW=0.17638855280953816 kvar=0.11785766630597205 Phases=1 yearly=res_kw_1229_pu

New Load.load_p1ulv3837_1 conn=wye bus1=p1ulv3837.1 kV=0.12 Vminpu=0.8 Vmaxpu=1.2 model=1 kW=4.255303740900178 kvar=1.3788619382740643 Phases=1 yearly=res_kw_332_pu

New Load.load_p1ulv3837_2 conn=wye bus1=p1ulv3837.2 kV=0.12 Vminpu=0.8 Vmaxpu=1.2 model=1 kW=4.255303740900178 kvar=1.3788619382740643 Phases=1 yearly=res_kw_332_pu

New Load.load_p1ulv3838_1 conn=wye bus1=p1ulv3838.1 kV=0.12 Vminpu=0.8 Vmaxpu=1.2 model=1 kW=3.2614858144948595 kvar=1.432421357457426 Phases=1 yearly=res_kw_431_pu

New Load.load_p1ulv3838_2 conn=wye bus1=p1ulv3838.2 kV=0.12 Vminpu=0.8 Vmaxpu=1.2 model=1 kW=3.2614858144948595 kvar=1.432421357457426 Phases=1 yearly=res_kw_431_pu

New Load.load_p1ulv3839_1 conn=wye bus1=p1ulv3839.1 kV=0.12 Vminpu=0.8 Vmaxpu=1.2 model=1 kW=4.255303740900178 kvar=1.3788619382740643 Phases=1 yearly=res_kw_332_pu

New Load.load_p1ulv3839_2 conn=wye bus1=p1ulv3839.2 kV=0.12 Vminpu=0.8 Vmaxpu=1.2 model=1 kW=4.255303740900178 kvar=1.3788619382740643 Phases=1 yearly=res_kw_332_pu

New Load.load_p1ulv3840_1 conn=wye bus1=p1ulv3840.1 kV=0.12 Vminpu=0.8 Vmaxpu=1.2 model=1 kW=3.2614858144948595 kvar=1.432421357457426 Phases=1 yearly=res_kw_431_pu

New Load.load_p1ulv3840_2 conn=wye bus1=p1ulv3840.2 kV=0.12 Vminpu=0.8 Vmaxpu=1.2 model=1 kW=3.2614858144948595 kvar=1.432421357457426 Phases=1 yearly=res_kw_431_pu

New Load.load_p1ulv3841_1 conn=wye bus1=p1ulv3840.1 kV=0.12 Vminpu=0.8 Vmaxpu=1.2 model=1 kW=3.2614858144948595 kvar=1.432421357457426 Phases=1 yearly=res_kw_431_pu

New Load.load_p1ulv3841_2 conn=wye bus1=p1ulv3840.2 kV=0.12 Vminpu=0.8 Vmaxpu=1.2 model=1 kW=3.2614858144948595 kvar=1.432421357457426 Phases=1 yearly=res_kw_431_pu

New Load.load_p1ulv3842_1 conn=wye bus1=p1ulv3842.1 kV=0.12 Vminpu=0.8 Vmaxpu=1.2 model=1 kW=1.4493292356011218 kvar=1.1002454873547782 Phases=1 yearly=res_kw_62_pu

New Load.load_p1ulv3842_2 conn=wye bus1=p1ulv3842.2 kV=0.12 Vminpu=0.8 Vmaxpu=1.2 model=1 kW=1.4493292356011218 kvar=1.1002454873547782 Phases=1 yearly=res_kw_62_pu

New Load.load_p1ulv3843_1 conn=wye bus1=p1ulv3843.1 kV=0.12 Vminpu=0.8 Vmaxpu=1.2 model=1 kW=3.2614858144948595 kvar=1.432421357457426 Phases=1 yearly=res_kw_431_pu

New Load.load_p1ulv3843_2 conn=wye bus1=p1ulv3843.2 kV=0.12 Vminpu=0.8 Vmaxpu=1.2 model=1 kW=3.2614858144948595 kvar=1.432421357457426 Phases=1 yearly=res_kw_431_pu

New Load.load_p1ulv3844_1 conn=wye bus1=p1ulv3844.1 kV=0.12 Vminpu=0.8 Vmaxpu=1.2 model=1 kW=2.3298924011300017 kvar=0.388795313922141 Phases=1 yearly=res_kw_41_pu

New Load.load_p1ulv3844_2 conn=wye bus1=p1ulv3844.2 kV=0.12 Vminpu=0.8 Vmaxpu=1.2 model=1 kW=2.3298924011300017 kvar=0.388795313922141 Phases=1 yearly=res_kw_41_pu

New Load.load_p1ulv3845_1 conn=wye bus1=p1ulv3845.1 kV=0.12 Vminpu=0.8 Vmaxpu=1.2 model=1 kW=0.17638855280953816 kvar=0.11785766630597205 Phases=1 yearly=res_kw_1229_pu

New Load.load_p1ulv3845_2 conn=wye bus1=p1ulv3845.2 kV=0.12 Vminpu=0.8 Vmaxpu=1.2 model=1 kW=0.17638855280953816 kvar=0.11785766630597205 Phases=1 yearly=res_kw_1229_pu

New Load.load_p1ulv3846_1 conn=wye bus1=p1ulv3845.1 kV=0.12 Vminpu=0.8 Vmaxpu=1.2 model=1 kW=0.17638855280953816 kvar=0.11785766630597205 Phases=1 yearly=res_kw_1229_pu

New Load.load_p1ulv3846_2 conn=wye bus1=p1ulv3845.2 kV=0.12 Vminpu=0.8 Vmaxpu=1.2 model=1 kW=0.17638855280953816 kvar=0.11785766630597205 Phases=1 yearly=res_kw_1229_pu

New Load.load_p1ulv3847_1 conn=wye bus1=p1ulv3847.1 kV=0.12 Vminpu=0.8 Vmaxpu=1.2 model=1 kW=2.3700113203165794 kvar=1.0419328311463634 Phases=1 yearly=res_kw_327_pu

New Load.load_p1ulv3847_2 conn=wye bus1=p1ulv3847.2 kV=0.12 Vminpu=0.8 Vmaxpu=1.2 model=1 kW=2.3700113203165794 kvar=1.0419328311463634 Phases=1 yearly=res_kw_327_pu

New Load.load_p1ulv3848_1 conn=wye bus1=p1ulv3848.1 kV=0.12 Vminpu=0.8 Vmaxpu=1.2 model=1 kW=4.255303740900178 kvar=1.3788619382740643 Phases=1 yearly=res_kw_332_pu

New Load.load_p1ulv3848_2 conn=wye bus1=p1ulv3848.2 kV=0.12 Vminpu=0.8 Vmaxpu=1.2 model=1 kW=4.255303740900178 kvar=1.3788619382740643 Phases=1 yearly=res_kw_332_pu

New Load.load_p1ulv3849_1 conn=wye bus1=p1ulv3849.1 kV=0.12 Vminpu=0.8 Vmaxpu=1.2 model=1 kW=2.3298924011300017 kvar=0.388795313922141 Phases=1 yearly=res_kw_41_pu

New Load.load_p1ulv3849_2 conn=wye bus1=p1ulv3849.2 kV=0.12 Vminpu=0.8 Vmaxpu=1.2 model=1 kW=2.3298924011300017 kvar=0.388795313922141 Phases=1 yearly=res_kw_41_pu

New Load.load_p1ulv3850_1 conn=wye bus1=p1ulv3847.1 kV=0.12 Vminpu=0.8 Vmaxpu=1.2 model=1 kW=3.2614858144948595 kvar=1.432421357457426 Phases=1 yearly=res_kw_431_pu

New Load.load_p1ulv3850_2 conn=wye bus1=p1ulv3847.2 kV=0.12 Vminpu=0.8 Vmaxpu=1.2 model=1 kW=3.2614858144948595 kvar=1.432421357457426 Phases=1 yearly=res_kw_431_pu

New Load.load_p1ulv3851_1 conn=wye bus1=p1ulv3851.1 kV=0.12 Vminpu=0.8 Vmaxpu=1.2 model=1 kW=3.2614858144948595 kvar=1.432421357457426 Phases=1 yearly=res_kw_431_pu

New Load.load_p1ulv3851_2 conn=wye bus1=p1ulv3851.2 kV=0.12 Vminpu=0.8 Vmaxpu=1.2 model=1 kW=3.2614858144948595 kvar=1.432421357457426 Phases=1 yearly=res_kw_431_pu

New Load.load_p1ulv3852_1 conn=wye bus1=p1ulv3852.1 kV=0.12 Vminpu=0.8 Vmaxpu=1.2 model=1 kW=2.252586941983099 kvar=1.0135983600233158 Phases=1 yearly=res_kw_853_pu

New Load.load_p1ulv3852_2 conn=wye bus1=p1ulv3852.2 kV=0.12 Vminpu=0.8 Vmaxpu=1.2 model=1 kW=2.252586941983099 kvar=1.0135983600233158 Phases=1 yearly=res_kw_853_pu

New Load.load_p1ulv3853_1 conn=wye bus1=p1ulv3853.1 kV=0.12 Vminpu=0.8 Vmaxpu=1.2 model=1 kW=1.4493292356011218 kvar=1.1002454873547782 Phases=1 yearly=res_kw_62_pu

New Load.load_p1ulv3853_2 conn=wye bus1=p1ulv3853.2 kV=0.12 Vminpu=0.8 Vmaxpu=1.2 model=1 kW=1.4493292356011218 kvar=1.1002454873547782 Phases=1 yearly=res_kw_62_pu

New Load.load_p1ulv3854_1 conn=wye bus1=p1ulv3854.1 kV=0.12 Vminpu=0.8 Vmaxpu=1.2 model=1 kW=3.2614858144948595 kvar=1.432421357457426 Phases=1 yearly=res_kw_431_pu

New Load.load_p1ulv3854_2 conn=wye bus1=p1ulv3854.2 kV=0.12 Vminpu=0.8 Vmaxpu=1.2 model=1 kW=3.2614858144948595 kvar=1.432421357457426 Phases=1 yearly=res_kw_431_pu

New Load.load_p1ulv3855_1 conn=wye bus1=p1ulv3855.1 kV=0.12 Vminpu=0.8 Vmaxpu=1.2 model=1 kW=4.255303740900178 kvar=1.3788619382740643 Phases=1 yearly=res_kw_332_pu

New Load.load_p1ulv3855_2 conn=wye bus1=p1ulv3855.2 kV=0.12 Vminpu=0.8 Vmaxpu=1.2 model=1 kW=4.255303740900178 kvar=1.3788619382740643 Phases=1 yearly=res_kw_332_pu

New Load.load_p1ulv3856_1 conn=wye bus1=p1ulv3856.1 kV=0.12 Vminpu=0.8 Vmaxpu=1.2 model=1 kW=4.255303740900178 kvar=1.3788619382740643 Phases=1 yearly=res_kw_332_pu

New Load.load_p1ulv3856_2 conn=wye bus1=p1ulv3856.2 kV=0.12 Vminpu=0.8 Vmaxpu=1.2 model=1 kW=4.255303740900178 kvar=1.3788619382740643 Phases=1 yearly=res_kw_332_pu

New Load.load_p1ulv3857_1 conn=wye bus1=p1ulv3857.1 kV=0.12 Vminpu=0.8 Vmaxpu=1.2 model=1 kW=2.252586941983099 kvar=1.0135983600233158 Phases=1 yearly=res_kw_853_pu

New Load.load_p1ulv3857_2 conn=wye bus1=p1ulv3857.2 kV=0.12 Vminpu=0.8 Vmaxpu=1.2 model=1 kW=2.252586941983099 kvar=1.0135983600233158 Phases=1 yearly=res_kw_853_pu

New Load.load_p1ulv3858_1 conn=wye bus1=p1ulv3858.1 kV=0.12 Vminpu=0.8 Vmaxpu=1.2 model=1 kW=4.255303740900178 kvar=1.3788619382740643 Phases=1 yearly=res_kw_332_pu

New Load.load_p1ulv3858_2 conn=wye bus1=p1ulv3858.2 kV=0.12 Vminpu=0.8 Vmaxpu=1.2 model=1 kW=4.255303740900178 kvar=1.3788619382740643 Phases=1 yearly=res_kw_332_pu

New Load.load_p1ulv3859_1 conn=wye bus1=p1ulv3858.1 kV=0.12 Vminpu=0.8 Vmaxpu=1.2 model=1 kW=4.255303740900178 kvar=1.3788619382740643 Phases=1 yearly=res_kw_332_pu

New Load.load_p1ulv3859_2 conn=wye bus1=p1ulv3858.2 kV=0.12 Vminpu=0.8 Vmaxpu=1.2 model=1 kW=4.255303740900178 kvar=1.3788619382740643 Phases=1 yearly=res_kw_332_pu

New Load.load_p1ulv3860_1 conn=wye bus1=p1ulv3860.1 kV=0.12 Vminpu=0.8 Vmaxpu=1.2 model=1 kW=4.255303740900178 kvar=1.3788619382740643 Phases=1 yearly=res_kw_332_pu

New Load.load_p1ulv3860_2 conn=wye bus1=p1ulv3860.2 kV=0.12 Vminpu=0.8 Vmaxpu=1.2 model=1 kW=4.255303740900178 kvar=1.3788619382740643 Phases=1 yearly=res_kw_332_pu

New Load.load_p1ulv3861_1 conn=wye bus1=p1ulv3861.1 kV=0.12 Vminpu=0.8 Vmaxpu=1.2 model=1 kW=2.252586941983099 kvar=1.0135983600233158 Phases=1 yearly=res_kw_853_pu

New Load.load_p1ulv3861_2 conn=wye bus1=p1ulv3861.2 kV=0.12 Vminpu=0.8 Vmaxpu=1.2 model=1 kW=2.252586941983099 kvar=1.0135983600233158 Phases=1 yearly=res_kw_853_pu

New Load.load_p1ulv3868_1 conn=wye bus1=p1ulv3868.1 kV=0.12 Vminpu=0.8 Vmaxpu=1.2 model=1 kW=4.255303740900178 kvar=1.3788619382740643 Phases=1 yearly=res_kw_332_pu

New Load.load_p1ulv3868_2 conn=wye bus1=p1ulv3868.2 kV=0.12 Vminpu=0.8 Vmaxpu=1.2 model=1 kW=4.255303740900178 kvar=1.3788619382740643 Phases=1 yearly=res_kw_332_pu

New Load.load_p1ulv3869_1 conn=wye bus1=p1ulv3869.1 kV=0.12 Vminpu=0.8 Vmaxpu=1.2 model=1 kW=4.255303740900178 kvar=1.3788619382740643 Phases=1 yearly=res_kw_332_pu

New Load.load_p1ulv3869_2 conn=wye bus1=p1ulv3869.2 kV=0.12 Vminpu=0.8 Vmaxpu=1.2 model=1 kW=4.255303740900178 kvar=1.3788619382740643 Phases=1 yearly=res_kw_332_pu

New Load.load_p1ulv3889_1 conn=wye bus1=p1ulv3889.1 kV=0.12 Vminpu=0.8 Vmaxpu=1.2 model=1 kW=4.255303740900178 kvar=1.3788619382740643 Phases=1 yearly=res_kw_332_pu

New Load.load_p1ulv3889_2 conn=wye bus1=p1ulv3889.2 kV=0.12 Vminpu=0.8 Vmaxpu=1.2 model=1 kW=4.255303740900178 kvar=1.3788619382740643 Phases=1 yearly=res_kw_332_pu

New Load.load_p1ulv3921_1 conn=wye bus1=p1ulv3921.1 kV=0.12 Vminpu=0.8 Vmaxpu=1.2 model=1 kW=2.3298924011300017 kvar=0.388795313922141 Phases=1 yearly=res_kw_41_pu

New Load.load_p1ulv3921_2 conn=wye bus1=p1ulv3921.2 kV=0.12 Vminpu=0.8 Vmaxpu=1.2 model=1 kW=2.3298924011300017 kvar=0.388795313922141 Phases=1 yearly=res_kw_41_pu

New Load.load_p1ulv3922_1 conn=wye bus1=p1ulv3922.1 kV=0.12 Vminpu=0.8 Vmaxpu=1.2 model=1 kW=2.252586941983099 kvar=1.0135983600233158 Phases=1 yearly=res_kw_853_pu

New Load.load_p1ulv3922_2 conn=wye bus1=p1ulv3922.2 kV=0.12 Vminpu=0.8 Vmaxpu=1.2 model=1 kW=2.252586941983099 kvar=1.0135983600233158 Phases=1 yearly=res_kw_853_pu

New Load.load_p1ulv3923_1 conn=wye bus1=p1ulv3923.1 kV=0.12 Vminpu=0.8 Vmaxpu=1.2 model=1 kW=2.3298924011300017 kvar=0.388795313922141 Phases=1 yearly=res_kw_41_pu

New Load.load_p1ulv3923_2 conn=wye bus1=p1ulv3923.2 kV=0.12 Vminpu=0.8 Vmaxpu=1.2 model=1 kW=2.3298924011300017 kvar=0.388795313922141 Phases=1 yearly=res_kw_41_pu

New Load.load_p1ulv3924_1 conn=wye bus1=p1ulv3924.1 kV=0.12 Vminpu=0.8 Vmaxpu=1.2 model=1 kW=3.2614858144948595 kvar=1.432421357457426 Phases=1 yearly=res_kw_431_pu

New Load.load_p1ulv3924_2 conn=wye bus1=p1ulv3924.2 kV=0.12 Vminpu=0.8 Vmaxpu=1.2 model=1 kW=3.2614858144948595 kvar=1.432421357457426 Phases=1 yearly=res_kw_431_pu

New Load.load_p1ulv3925_1 conn=wye bus1=p1ulv3925.1 kV=0.12 Vminpu=0.8 Vmaxpu=1.2 model=1 kW=3.2614858144948595 kvar=1.432421357457426 Phases=1 yearly=res_kw_431_pu

New Load.load_p1ulv3925_2 conn=wye bus1=p1ulv3925.2 kV=0.12 Vminpu=0.8 Vmaxpu=1.2 model=1 kW=3.2614858144948595 kvar=1.432421357457426 Phases=1 yearly=res_kw_431_pu

New Load.load_p1ulv3926_1 conn=wye bus1=p1ulv3926.1 kV=0.12 Vminpu=0.8 Vmaxpu=1.2 model=1 kW=4.255303740900178 kvar=1.3788619382740643 Phases=1 yearly=res_kw_332_pu

New Load.load_p1ulv3926_2 conn=wye bus1=p1ulv3926.2 kV=0.12 Vminpu=0.8 Vmaxpu=1.2 model=1 kW=4.255303740900178 kvar=1.3788619382740643 Phases=1 yearly=res_kw_332_pu

New Load.load_p1ulv3927_1 conn=wye bus1=p1ulv3927.1 kV=0.12 Vminpu=0.8 Vmaxpu=1.2 model=1 kW=3.2614858144948595 kvar=1.432421357457426 Phases=1 yearly=res_kw_431_pu

New Load.load_p1ulv3927_2 conn=wye bus1=p1ulv3927.2 kV=0.12 Vminpu=0.8 Vmaxpu=1.2 model=1 kW=3.2614858144948595 kvar=1.432421357457426 Phases=1 yearly=res_kw_431_pu

New Load.load_p1ulv3928_1 conn=wye bus1=p1ulv3928.1 kV=0.12 Vminpu=0.8 Vmaxpu=1.2 model=1 kW=3.2614858144948595 kvar=1.432421357457426 Phases=1 yearly=res_kw_431_pu

New Load.load_p1ulv3928_2 conn=wye bus1=p1ulv3928.2 kV=0.12 Vminpu=0.8 Vmaxpu=1.2 model=1 kW=3.2614858144948595 kvar=1.432421357457426 Phases=1 yearly=res_kw_431_pu

New Load.load_p1ulv3929_1 conn=wye bus1=p1ulv3929.1 kV=0.12 Vminpu=0.8 Vmaxpu=1.2 model=1 kW=4.255303740900178 kvar=1.3788619382740643 Phases=1 yearly=res_kw_332_pu

New Load.load_p1ulv3929_2 conn=wye bus1=p1ulv3929.2 kV=0.12 Vminpu=0.8 Vmaxpu=1.2 model=1 kW=4.255303740900178 kvar=1.3788619382740643 Phases=1 yearly=res_kw_332_pu

New Load.load_p1ulv3931_1 conn=wye bus1=p1ulv3931.1 kV=0.12 Vminpu=0.8 Vmaxpu=1.2 model=1 kW=3.2614858144948595 kvar=1.432421357457426 Phases=1 yearly=res_kw_431_pu

New Load.load_p1ulv3931_2 conn=wye bus1=p1ulv3931.2 kV=0.12 Vminpu=0.8 Vmaxpu=1.2 model=1 kW=3.2614858144948595 kvar=1.432421357457426 Phases=1 yearly=res_kw_431_pu

New Load.load_p1ulv4330_1 conn=wye bus1=p1ulv4330.1 kV=0.12 Vminpu=0.8 Vmaxpu=1.2 model=1 kW=9.666699253995569 kvar=2.090221480167897 Phases=1 yearly=res_kw_46_pu

New Load.load_p1ulv4330_2 conn=wye bus1=p1ulv4330.2 kV=0.12 Vminpu=0.8 Vmaxpu=1.2 model=1 kW=9.666699253995569 kvar=2.090221480167897 Phases=1 yearly=res_kw_46_pu

New Load.load_p1ulv4333_1 conn=wye bus1=p1ulv4333.1 kV=0.12 Vminpu=0.8 Vmaxpu=1.2 model=1 kW=9.591249211904968 kvar=2.0347748075499026 Phases=1 yearly=res_kw_319_pu

New Load.load_p1ulv4333_2 conn=wye bus1=p1ulv4333.2 kV=0.12 Vminpu=0.8 Vmaxpu=1.2 model=1 kW=9.591249211904968 kvar=2.0347748075499026 Phases=1 yearly=res_kw_319_pu

New Load.load_p1ulv4335_1 conn=wye bus1=p1ulv4335.1 kV=0.12 Vminpu=0.8 Vmaxpu=1.2 model=1 kW=5.777968789114468 kvar=0.5425823089827511 Phases=1 yearly=com_kw_15253_pu

New Load.load_p1ulv4335_2 conn=wye bus1=p1ulv4335.2 kV=0.12 Vminpu=0.8 Vmaxpu=1.2 model=1 kW=5.777968789114468 kvar=0.5425823089827511 Phases=1 yearly=com_kw_15253_pu

New Load.load_p1ulv5255_1 conn=wye bus1=p1ulv5255.1 kV=0.12 Vminpu=0.8 Vmaxpu=1.2 model=1 kW=7.04256695844029 kvar=1.659740351203588 Phases=1 yearly=res_kw_707_pu

New Load.load_p1ulv5255_2 conn=wye bus1=p1ulv5255.2 kV=0.12 Vminpu=0.8 Vmaxpu=1.2 model=1 kW=7.04256695844029 kvar=1.659740351203588 Phases=1 yearly=res_kw_707_pu

New Load.load_p1ulv5256_1 conn=wye bus1=p1ulv5256.1 kV=0.12 Vminpu=0.8 Vmaxpu=1.2 model=1 kW=2.605021030189827 kvar=1.0007509371876184 Phases=1 yearly=res_kw_24_pu

New Load.load_p1ulv5256_2 conn=wye bus1=p1ulv5256.2 kV=0.12 Vminpu=0.8 Vmaxpu=1.2 model=1 kW=2.605021030189827 kvar=1.0007509371876184 Phases=1 yearly=res_kw_24_pu

New Load.load_p1ulv5257_1 conn=wye bus1=p1ulv5256.1 kV=0.12 Vminpu=0.8 Vmaxpu=1.2 model=1 kW=2.605021030189827 kvar=1.0007509371876184 Phases=1 yearly=res_kw_24_pu

New Load.load_p1ulv5257_2 conn=wye bus1=p1ulv5256.2 kV=0.12 Vminpu=0.8 Vmaxpu=1.2 model=1 kW=2.605021030189827 kvar=1.0007509371876184 Phases=1 yearly=res_kw_24_pu

New Load.load_p1ulv5258_1 conn=wye bus1=p1ulv5258.1 kV=0.12 Vminpu=0.8 Vmaxpu=1.2 model=1 kW=2.6241521841182514 kvar=0.8429304779950015 Phases=1 yearly=res_kw_33_pu

New Load.load_p1ulv5258_2 conn=wye bus1=p1ulv5258.2 kV=0.12 Vminpu=0.8 Vmaxpu=1.2 model=1 kW=2.6241521841182514 kvar=0.8429304779950015 Phases=1 yearly=res_kw_33_pu

New Load.load_p1ulv5259_1 conn=wye bus1=p1ulv5259.1 kV=0.12 Vminpu=0.8 Vmaxpu=1.2 model=1 kW=2.1376631749204993 kvar=0.6218033466021168 Phases=1 yearly=res_kw_93_pu

New Load.load_p1ulv5259_2 conn=wye bus1=p1ulv5259.2 kV=0.12 Vminpu=0.8 Vmaxpu=1.2 model=1 kW=2.1376631749204993 kvar=0.6218033466021168 Phases=1 yearly=res_kw_93_pu

New Load.load_p1ulv5260_1 conn=wye bus1=p1ulv5260.1 kV=0.12 Vminpu=0.8 Vmaxpu=1.2 model=1 kW=2.623267981089487 kvar=1.212519304398851 Phases=1 yearly=res_kw_452_pu

New Load.load_p1ulv5260_2 conn=wye bus1=p1ulv5260.2 kV=0.12 Vminpu=0.8 Vmaxpu=1.2 model=1 kW=2.623267981089487 kvar=1.212519304398851 Phases=1 yearly=res_kw_452_pu

New Load.load_p1ulv5261_1 conn=wye bus1=p1ulv5261.1 kV=0.12 Vminpu=0.8 Vmaxpu=1.2 model=1 kW=2.623267981089487 kvar=1.212519304398851 Phases=1 yearly=res_kw_452_pu

New Load.load_p1ulv5261_2 conn=wye bus1=p1ulv5261.2 kV=0.12 Vminpu=0.8 Vmaxpu=1.2 model=1 kW=2.623267981089487 kvar=1.212519304398851 Phases=1 yearly=res_kw_452_pu

New Load.load_p1ulv5262_1 conn=wye bus1=p1ulv5262.1 kV=0.12 Vminpu=0.8 Vmaxpu=1.2 model=1 kW=2.1376631749204993 kvar=0.6218033466021168 Phases=1 yearly=res_kw_93_pu

New Load.load_p1ulv5262_2 conn=wye bus1=p1ulv5262.2 kV=0.12 Vminpu=0.8 Vmaxpu=1.2 model=1 kW=2.1376631749204993 kvar=0.6218033466021168 Phases=1 yearly=res_kw_93_pu

New Load.load_p1ulv5263_1 conn=wye bus1=p1ulv5263.1 kV=0.12 Vminpu=0.8 Vmaxpu=1.2 model=1 kW=2.623267981089487 kvar=1.212519304398851 Phases=1 yearly=res_kw_452_pu

New Load.load_p1ulv5263_2 conn=wye bus1=p1ulv5263.2 kV=0.12 Vminpu=0.8 Vmaxpu=1.2 model=1 kW=2.623267981089487 kvar=1.212519304398851 Phases=1 yearly=res_kw_452_pu

New Load.load_p1ulv5264_1 conn=wye bus1=p1ulv5259.1 kV=0.12 Vminpu=0.8 Vmaxpu=1.2 model=1 kW=2.9178485115923896 kvar=1.0715119122844614 Phases=1 yearly=res_kw_1149_pu

New Load.load_p1ulv5264_2 conn=wye bus1=p1ulv5259.2 kV=0.12 Vminpu=0.8 Vmaxpu=1.2 model=1 kW=2.9178485115923896 kvar=1.0715119122844614 Phases=1 yearly=res_kw_1149_pu

New Load.load_p1ulv5265_1 conn=wye bus1=p1ulv5263.1 kV=0.12 Vminpu=0.8 Vmaxpu=1.2 model=1 kW=2.605021030189827 kvar=1.0007509371876184 Phases=1 yearly=res_kw_24_pu

New Load.load_p1ulv5265_2 conn=wye bus1=p1ulv5263.2 kV=0.12 Vminpu=0.8 Vmaxpu=1.2 model=1 kW=2.605021030189827 kvar=1.0007509371876184 Phases=1 yearly=res_kw_24_pu

New Load.load_p1ulv5266_1 conn=wye bus1=p1ulv5266.1 kV=0.12 Vminpu=0.8 Vmaxpu=1.2 model=1 kW=4.359410160991208 kvar=0.7703346328307125 Phases=1 yearly=res_kw_470_pu

New Load.load_p1ulv5266_2 conn=wye bus1=p1ulv5266.2 kV=0.12 Vminpu=0.8 Vmaxpu=1.2 model=1 kW=4.359410160991208 kvar=0.7703346328307125 Phases=1 yearly=res_kw_470_pu

New Load.load_p1ulv5267_1 conn=wye bus1=p1ulv5267.1 kV=0.12 Vminpu=0.8 Vmaxpu=1.2 model=1 kW=1.8618983584330409 kvar=0.7337589993741062 Phases=1 yearly=res_kw_141_pu

New Load.load_p1ulv5267_2 conn=wye bus1=p1ulv5267.2 kV=0.12 Vminpu=0.8 Vmaxpu=1.2 model=1 kW=1.8618983584330409 kvar=0.7337589993741062 Phases=1 yearly=res_kw_141_pu

New Load.load_p1ulv5268_1 conn=wye bus1=p1ulv5268.1 kV=0.12 Vminpu=0.8 Vmaxpu=1.2 model=1 kW=2.605021030189827 kvar=1.0007509371876184 Phases=1 yearly=res_kw_24_pu

New Load.load_p1ulv5268_2 conn=wye bus1=p1ulv5268.2 kV=0.12 Vminpu=0.8 Vmaxpu=1.2 model=1 kW=2.605021030189827 kvar=1.0007509371876184 Phases=1 yearly=res_kw_24_pu

New Load.load_p1ulv5269_1 conn=wye bus1=p1ulv5269.1 kV=0.12 Vminpu=0.8 Vmaxpu=1.2 model=1 kW=2.1376631749204993 kvar=0.6218033466021168 Phases=1 yearly=res_kw_93_pu

New Load.load_p1ulv5269_2 conn=wye bus1=p1ulv5269.2 kV=0.12 Vminpu=0.8 Vmaxpu=1.2 model=1 kW=2.1376631749204993 kvar=0.6218033466021168 Phases=1 yearly=res_kw_93_pu

New Load.load_p1ulv5270_1 conn=wye bus1=p1ulv5270.1 kV=0.12 Vminpu=0.8 Vmaxpu=1.2 model=1 kW=2.6241521841182514 kvar=0.8429304779950015 Phases=1 yearly=res_kw_33_pu

New Load.load_p1ulv5270_2 conn=wye bus1=p1ulv5270.2 kV=0.12 Vminpu=0.8 Vmaxpu=1.2 model=1 kW=2.6241521841182514 kvar=0.8429304779950015 Phases=1 yearly=res_kw_33_pu

New Load.load_p1ulv5271_1 conn=wye bus1=p1ulv5271.1 kV=0.12 Vminpu=0.8 Vmaxpu=1.2 model=1 kW=2.6241521841182514 kvar=0.8429304779950015 Phases=1 yearly=res_kw_33_pu

New Load.load_p1ulv5271_2 conn=wye bus1=p1ulv5271.2 kV=0.12 Vminpu=0.8 Vmaxpu=1.2 model=1 kW=2.6241521841182514 kvar=0.8429304779950015 Phases=1 yearly=res_kw_33_pu

New Load.load_p1ulv5272_1 conn=wye bus1=p1ulv5272.1 kV=0.12 Vminpu=0.8 Vmaxpu=1.2 model=1 kW=2.5047232020051142 kvar=0.6800922265265169 Phases=1 yearly=res_kw_162_pu

New Load.load_p1ulv5272_2 conn=wye bus1=p1ulv5272.2 kV=0.12 Vminpu=0.8 Vmaxpu=1.2 model=1 kW=2.5047232020051142 kvar=0.6800922265265169 Phases=1 yearly=res_kw_162_pu

New Load.load_p1ulv5273_1 conn=wye bus1=p1ulv5272.1 kV=0.12 Vminpu=0.8 Vmaxpu=1.2 model=1 kW=5.675346369339635 kvar=1.238985226090579 Phases=1 yearly=res_kw_1186_pu

New Load.load_p1ulv5273_2 conn=wye bus1=p1ulv5272.2 kV=0.12 Vminpu=0.8 Vmaxpu=1.2 model=1 kW=5.675346369339635 kvar=1.238985226090579 Phases=1 yearly=res_kw_1186_pu

New Load.load_p1ulv5274_1 conn=wye bus1=p1ulv5274.1 kV=0.12 Vminpu=0.8 Vmaxpu=1.2 model=1 kW=2.6241521841182514 kvar=0.8429304779950015 Phases=1 yearly=res_kw_33_pu

New Load.load_p1ulv5274_2 conn=wye bus1=p1ulv5274.2 kV=0.12 Vminpu=0.8 Vmaxpu=1.2 model=1 kW=2.6241521841182514 kvar=0.8429304779950015 Phases=1 yearly=res_kw_33_pu

New Load.load_p1ulv5275_1 conn=wye bus1=p1ulv5274.1 kV=0.12 Vminpu=0.8 Vmaxpu=1.2 model=1 kW=2.6241521841182514 kvar=0.8429304779950015 Phases=1 yearly=res_kw_33_pu

New Load.load_p1ulv5275_2 conn=wye bus1=p1ulv5274.2 kV=0.12 Vminpu=0.8 Vmaxpu=1.2 model=1 kW=2.6241521841182514 kvar=0.8429304779950015 Phases=1 yearly=res_kw_33_pu

New Load.load_p1ulv5276_1 conn=wye bus1=p1ulv5276.1 kV=0.12 Vminpu=0.8 Vmaxpu=1.2 model=1 kW=5.574466357705123 kvar=1.0791692562247137 Phases=1 yearly=res_kw_1083_pu

New Load.load_p1ulv5276_2 conn=wye bus1=p1ulv5276.2 kV=0.12 Vminpu=0.8 Vmaxpu=1.2 model=1 kW=5.574466357705123 kvar=1.0791692562247137 Phases=1 yearly=res_kw_1083_pu

New Load.load_p1ulv5277_1 conn=wye bus1=p1ulv5277.1 kV=0.12 Vminpu=0.8 Vmaxpu=1.2 model=1 kW=2.6241521841182514 kvar=0.8429304779950015 Phases=1 yearly=res_kw_33_pu

New Load.load_p1ulv5277_2 conn=wye bus1=p1ulv5277.2 kV=0.12 Vminpu=0.8 Vmaxpu=1.2 model=1 kW=2.6241521841182514 kvar=0.8429304779950015 Phases=1 yearly=res_kw_33_pu

New Load.load_p1ulv5278_1 conn=wye bus1=p1ulv5277.1 kV=0.12 Vminpu=0.8 Vmaxpu=1.2 model=1 kW=2.6241521841182514 kvar=0.8429304779950015 Phases=1 yearly=res_kw_33_pu

New Load.load_p1ulv5278_2 conn=wye bus1=p1ulv5277.2 kV=0.12 Vminpu=0.8 Vmaxpu=1.2 model=1 kW=2.6241521841182514 kvar=0.8429304779950015 Phases=1 yearly=res_kw_33_pu

New Load.load_p1ulv5279_1 conn=wye bus1=p1ulv5279.1 kV=0.12 Vminpu=0.8 Vmaxpu=1.2 model=1 kW=2.1376631749204993 kvar=0.6218033466021168 Phases=1 yearly=res_kw_93_pu

New Load.load_p1ulv5279_2 conn=wye bus1=p1ulv5279.2 kV=0.12 Vminpu=0.8 Vmaxpu=1.2 model=1 kW=2.1376631749204993 kvar=0.6218033466021168 Phases=1 yearly=res_kw_93_pu

New Load.load_p1ulv5280_1 conn=wye bus1=p1ulv5280.1 kV=0.12 Vminpu=0.8 Vmaxpu=1.2 model=1 kW=2.6241521841182514 kvar=0.8429304779950015 Phases=1 yearly=res_kw_33_pu

New Load.load_p1ulv5280_2 conn=wye bus1=p1ulv5280.2 kV=0.12 Vminpu=0.8 Vmaxpu=1.2 model=1 kW=2.6241521841182514 kvar=0.8429304779950015 Phases=1 yearly=res_kw_33_pu

New Load.load_p1ulv5281_1 conn=wye bus1=p1ulv5281.1 kV=0.12 Vminpu=0.8 Vmaxpu=1.2 model=1 kW=2.605021030189827 kvar=1.0007509371876184 Phases=1 yearly=res_kw_24_pu

New Load.load_p1ulv5281_2 conn=wye bus1=p1ulv5281.2 kV=0.12 Vminpu=0.8 Vmaxpu=1.2 model=1 kW=2.605021030189827 kvar=1.0007509371876184 Phases=1 yearly=res_kw_24_pu

New Load.load_p1ulv5282_1 conn=wye bus1=p1ulv5281.1 kV=0.12 Vminpu=0.8 Vmaxpu=1.2 model=1 kW=2.6241521841182514 kvar=0.8429304779950015 Phases=1 yearly=res_kw_33_pu

New Load.load_p1ulv5282_2 conn=wye bus1=p1ulv5281.2 kV=0.12 Vminpu=0.8 Vmaxpu=1.2 model=1 kW=2.6241521841182514 kvar=0.8429304779950015 Phases=1 yearly=res_kw_33_pu

New Load.load_p1ulv5283_1 conn=wye bus1=p1ulv5283.1 kV=0.12 Vminpu=0.8 Vmaxpu=1.2 model=1 kW=9.341738473663403 kvar=2.018548151169967 Phases=1 yearly=res_kw_504_pu

New Load.load_p1ulv5283_2 conn=wye bus1=p1ulv5283.2 kV=0.12 Vminpu=0.8 Vmaxpu=1.2 model=1 kW=9.341738473663403 kvar=2.018548151169967 Phases=1 yearly=res_kw_504_pu

New Load.load_p1ulv5284_1 conn=wye bus1=p1ulv5284.1 kV=0.12 Vminpu=0.8 Vmaxpu=1.2 model=1 kW=2.1376631749204993 kvar=0.6218033466021168 Phases=1 yearly=res_kw_93_pu

New Load.load_p1ulv5284_2 conn=wye bus1=p1ulv5284.2 kV=0.12 Vminpu=0.8 Vmaxpu=1.2 model=1 kW=2.1376631749204993 kvar=0.6218033466021168 Phases=1 yearly=res_kw_93_pu

New Load.load_p1ulv5285_1 conn=wye bus1=p1ulv5285.1 kV=0.12 Vminpu=0.8 Vmaxpu=1.2 model=1 kW=2.1376631749204993 kvar=0.6218033466021168 Phases=1 yearly=res_kw_93_pu

New Load.load_p1ulv5285_2 conn=wye bus1=p1ulv5285.2 kV=0.12 Vminpu=0.8 Vmaxpu=1.2 model=1 kW=2.1376631749204993 kvar=0.6218033466021168 Phases=1 yearly=res_kw_93_pu

New Load.load_p1ulv5286_1 conn=wye bus1=p1ulv5286.1 kV=0.12 Vminpu=0.8 Vmaxpu=1.2 model=1 kW=2.1376631749204993 kvar=0.6218033466021168 Phases=1 yearly=res_kw_93_pu

New Load.load_p1ulv5286_2 conn=wye bus1=p1ulv5286.2 kV=0.12 Vminpu=0.8 Vmaxpu=1.2 model=1 kW=2.1376631749204993 kvar=0.6218033466021168 Phases=1 yearly=res_kw_93_pu

New Load.load_p1ulv5287_1 conn=wye bus1=p1ulv5287.1 kV=0.12 Vminpu=0.8 Vmaxpu=1.2 model=1 kW=2.1894046505184286 kvar=0.7281040757251952 Phases=1 yearly=res_kw_1042_pu

New Load.load_p1ulv5287_2 conn=wye bus1=p1ulv5287.2 kV=0.12 Vminpu=0.8 Vmaxpu=1.2 model=1 kW=2.1894046505184286 kvar=0.7281040757251952 Phases=1 yearly=res_kw_1042_pu

New Load.load_p1ulv5288_1 conn=wye bus1=p1ulv5288.1 kV=0.12 Vminpu=0.8 Vmaxpu=1.2 model=1 kW=4.636481007063952 kvar=0.9283071535807212 Phases=1 yearly=res_kw_644_pu

New Load.load_p1ulv5288_2 conn=wye bus1=p1ulv5288.2 kV=0.12 Vminpu=0.8 Vmaxpu=1.2 model=1 kW=4.636481007063952 kvar=0.9283071535807212 Phases=1 yearly=res_kw_644_pu

New Load.load_p1ulv5289_1 conn=wye bus1=p1ulv5288.1 kV=0.12 Vminpu=0.8 Vmaxpu=1.2 model=1 kW=2.1894046505184286 kvar=0.7281040757251952 Phases=1 yearly=res_kw_1042_pu

New Load.load_p1ulv5289_2 conn=wye bus1=p1ulv5288.2 kV=0.12 Vminpu=0.8 Vmaxpu=1.2 model=1 kW=2.1894046505184286 kvar=0.7281040757251952 Phases=1 yearly=res_kw_1042_pu
