New Load.load_p1ulv5429_1 conn=wye bus1=p1ulv5429.1 kV=0.12 Vminpu=0.8 Vmaxpu=1.2 model=1 kW=4.7264639008757365 kvar=1.36553634213978 Phases=1 yearly=res_kw_1220_pu

New Load.load_p1ulv5429_2 conn=wye bus1=p1ulv5429.2 kV=0.12 Vminpu=0.8 Vmaxpu=1.2 model=1 kW=4.7264639008757365 kvar=1.36553634213978 Phases=1 yearly=res_kw_1220_pu

New Load.load_p1ulv5430_1 conn=wye bus1=p1ulv5430.1 kV=0.12 Vminpu=0.8 Vmaxpu=1.2 model=1 kW=5.991566549041883 kvar=1.4552695367795996 Phases=1 yearly=res_kw_1283_pu

New Load.load_p1ulv5430_2 conn=wye bus1=p1ulv5430.2 kV=0.12 Vminpu=0.8 Vmaxpu=1.2 model=1 kW=5.991566549041883 kvar=1.4552695367795996 Phases=1 yearly=res_kw_1283_pu

New Load.load_p1ulv5438_1 conn=wye bus1=p1ulv5438.1 kV=0.12 Vminpu=0.8 Vmaxpu=1.2 model=1 kW=6.520159505202592 kvar=1.1378587223610979 Phases=1 yearly=res_kw_879_pu

New Load.load_p1ulv5438_2 conn=wye bus1=p1ulv5438.2 kV=0.12 Vminpu=0.8 Vmaxpu=1.2 model=1 kW=6.520159505202592 kvar=1.1378587223610979 Phases=1 yearly=res_kw_879_pu

New Load.load_p1ulv5447_1 conn=wye bus1=p1ulv5447.1 kV=0.12 Vminpu=0.8 Vmaxpu=1.2 model=1 kW=3.963001053413761 kvar=0.9410786890170905 Phases=1 yearly=res_kw_1256_pu

New Load.load_p1ulv5447_2 conn=wye bus1=p1ulv5447.2 kV=0.12 Vminpu=0.8 Vmaxpu=1.2 model=1 kW=3.963001053413761 kvar=0.9410786890170905 Phases=1 yearly=res_kw_1256_pu

New Load.load_p1ulv5454_1 conn=wye bus1=p1ulv5454.1 kV=0.12 Vminpu=0.8 Vmaxpu=1.2 model=1 kW=5.436729579526792 kvar=1.2488470964899614 Phases=1 yearly=res_kw_454_pu

New Load.load_p1ulv5454_2 conn=wye bus1=p1ulv5454.2 kV=0.12 Vminpu=0.8 Vmaxpu=1.2 model=1 kW=5.436729579526792 kvar=1.2488470964899614 Phases=1 yearly=res_kw_454_pu

New Load.load_p1ulv5455_1 conn=wye bus1=p1ulv5455.1 kV=0.12 Vminpu=0.8 Vmaxpu=1.2 model=1 kW=3.4468581914223817 kvar=1.1411197390818253 Phases=1 yearly=res_kw_250_pu

New Load.load_p1ulv5455_2 conn=wye bus1=p1ulv5455.2 kV=0.12 Vminpu=0.8 Vmaxpu=1.2 model=1 kW=3.4468581914223817 kvar=1.1411197390818253 Phases=1 yearly=res_kw_250_pu

New Load.load_p1ulv5456 conn=wye bus1=p1ulv5456.1.2.3 kV=0.48 Vminpu=0.8 Vmaxpu=1.2 model=1 kW=90.84575360320908 kvar=22.30335579553028 Phases=3 yearly=com_kw_13363_pu

New Load.load_p1ulv5457_1 conn=wye bus1=p1ulv5457.1 kV=0.12 Vminpu=0.8 Vmaxpu=1.2 model=1 kW=2.465496051676302 kvar=0.5881407747231531 Phases=1 yearly=com_kw_13121_pu

New Load.load_p1ulv5457_2 conn=wye bus1=p1ulv5457.2 kV=0.12 Vminpu=0.8 Vmaxpu=1.2 model=1 kW=2.465496051676302 kvar=0.5881407747231531 Phases=1 yearly=com_kw_13121_pu

New Load.load_p1ulv5458_1 conn=wye bus1=p1ulv5458.1 kV=0.12 Vminpu=0.8 Vmaxpu=1.2 model=1 kW=4.857616015471129 kvar=0.2397306111492685 Phases=1 yearly=com_kw_14883_pu

New Load.load_p1ulv5458_2 conn=wye bus1=p1ulv5458.2 kV=0.12 Vminpu=0.8 Vmaxpu=1.2 model=1 kW=4.857616015471129 kvar=0.2397306111492685 Phases=1 yearly=com_kw_14883_pu

New Load.load_p1ulv5459_1 conn=wye bus1=p1ulv5459.1 kV=0.12 Vminpu=0.8 Vmaxpu=1.2 model=1 kW=1.8801200674575587 kvar=0.53962653273889 Phases=1 yearly=com_kw_13578_pu

New Load.load_p1ulv5459_2 conn=wye bus1=p1ulv5459.2 kV=0.12 Vminpu=0.8 Vmaxpu=1.2 model=1 kW=1.8801200674575587 kvar=0.53962653273889 Phases=1 yearly=com_kw_13578_pu

New Load.load_p1ulv5460 conn=wye bus1=p1ulv5460.1.2.3 kV=0.48 Vminpu=0.8 Vmaxpu=1.2 model=1 kW=298.6992201373827 kvar=86.99753502521469 Phases=3 yearly=com_kw_14712_pu

New Load.load_p1ulv5461_1 conn=wye bus1=p1ulv5461.1 kV=0.12 Vminpu=0.8 Vmaxpu=1.2 model=1 kW=6.4896365820991955 kvar=1.543503848965248 Phases=1 yearly=res_kw_206_pu

New Load.load_p1ulv5461_2 conn=wye bus1=p1ulv5461.2 kV=0.12 Vminpu=0.8 Vmaxpu=1.2 model=1 kW=6.4896365820991955 kvar=1.543503848965248 Phases=1 yearly=res_kw_206_pu

New Load.load_p1ulv5462_1 conn=wye bus1=p1ulv5462.1 kV=0.12 Vminpu=0.8 Vmaxpu=1.2 model=1 kW=4.78815623948431 kvar=1.2110296754961107 Phases=1 yearly=res_kw_842_pu

New Load.load_p1ulv5462_2 conn=wye bus1=p1ulv5462.2 kV=0.12 Vminpu=0.8 Vmaxpu=1.2 model=1 kW=4.78815623948431 kvar=1.2110296754961107 Phases=1 yearly=res_kw_842_pu

New Load.load_p1ulv5463_1 conn=wye bus1=p1ulv5463.1 kV=0.12 Vminpu=0.8 Vmaxpu=1.2 model=1 kW=5.927737313300522 kvar=2.018482424064332 Phases=1 yearly=res_kw_38_pu

New Load.load_p1ulv5463_2 conn=wye bus1=p1ulv5463.2 kV=0.12 Vminpu=0.8 Vmaxpu=1.2 model=1 kW=5.927737313300522 kvar=2.018482424064332 Phases=1 yearly=res_kw_38_pu

New Load.load_p1ulv5464_1 conn=wye bus1=p1ulv5464.1 kV=0.12 Vminpu=0.8 Vmaxpu=1.2 model=1 kW=2.40000228705824 kvar=1.0173787262529668 Phases=1 yearly=res_kw_1205_pu

New Load.load_p1ulv5464_2 conn=wye bus1=p1ulv5464.2 kV=0.12 Vminpu=0.8 Vmaxpu=1.2 model=1 kW=2.40000228705824 kvar=1.0173787262529668 Phases=1 yearly=res_kw_1205_pu

New Load.load_p1ulv5465_1 conn=wye bus1=p1ulv5465.1 kV=0.12 Vminpu=0.8 Vmaxpu=1.2 model=1 kW=9.666699253995569 kvar=2.090221480167897 Phases=1 yearly=res_kw_46_pu

New Load.load_p1ulv5465_2 conn=wye bus1=p1ulv5465.2 kV=0.12 Vminpu=0.8 Vmaxpu=1.2 model=1 kW=9.666699253995569 kvar=2.090221480167897 Phases=1 yearly=res_kw_46_pu

New Load.load_p1ulv5466_1 conn=wye bus1=p1ulv5466.1 kV=0.12 Vminpu=0.8 Vmaxpu=1.2 model=1 kW=9.666699253995569 kvar=2.090221480167897 Phases=1 yearly=res_kw_46_pu

New Load.load_p1ulv5466_2 conn=wye bus1=p1ulv5466.2 kV=0.12 Vminpu=0.8 Vmaxpu=1.2 model=1 kW=9.666699253995569 kvar=2.090221480167897 Phases=1 yearly=res_kw_46_pu

New Load.load_p1ulv5467_1 conn=wye bus1=p1ulv5467.1 kV=0.12 Vminpu=0.8 Vmaxpu=1.2 model=1 kW=7.7578735794910925 kvar=1.9049941012910125 Phases=1 yearly=res_kw_863_pu

New Load.load_p1ulv5467_2 conn=wye bus1=p1ulv5467.2 kV=0.12 Vminpu=0.8 Vmaxpu=1.2 model=1 kW=7.7578735794910925 kvar=1.9049941012910125 Phases=1 yearly=res_kw_863_pu

New Load.load_p1ulv5468_1 conn=wye bus1=p1ulv5468.1 kV=0.12 Vminpu=0.8 Vmaxpu=1.2 model=1 kW=2.4402285312138985 kvar=0.9342273883677934 Phases=1 yearly=res_kw_409_pu

New Load.load_p1ulv5468_2 conn=wye bus1=p1ulv5468.2 kV=0.12 Vminpu=0.8 Vmaxpu=1.2 model=1 kW=2.4402285312138985 kvar=0.9342273883677934 Phases=1 yearly=res_kw_409_pu

New Load.load_p1ulv5469_1 conn=wye bus1=p1ulv5469.1 kV=0.12 Vminpu=0.8 Vmaxpu=1.2 model=1 kW=6.224817813202313 kvar=1.7553010009693135 Phases=1 yearly=res_kw_710_pu

New Load.load_p1ulv5469_2 conn=wye bus1=p1ulv5469.2 kV=0.12 Vminpu=0.8 Vmaxpu=1.2 model=1 kW=6.224817813202313 kvar=1.7553010009693135 Phases=1 yearly=res_kw_710_pu

New Load.load_p1ulv5473_1 conn=wye bus1=p1ulv5473.1 kV=0.12 Vminpu=0.8 Vmaxpu=1.2 model=1 kW=5.436729579526792 kvar=1.2488470964899614 Phases=1 yearly=res_kw_454_pu

New Load.load_p1ulv5473_2 conn=wye bus1=p1ulv5473.2 kV=0.12 Vminpu=0.8 Vmaxpu=1.2 model=1 kW=5.436729579526792 kvar=1.2488470964899614 Phases=1 yearly=res_kw_454_pu

New Load.load_p1ulv5475_1 conn=wye bus1=p1ulv5475.1 kV=0.12 Vminpu=0.8 Vmaxpu=1.2 model=1 kW=2.40000228705824 kvar=1.0173787262529668 Phases=1 yearly=res_kw_1205_pu

New Load.load_p1ulv5475_2 conn=wye bus1=p1ulv5475.2 kV=0.12 Vminpu=0.8 Vmaxpu=1.2 model=1 kW=2.40000228705824 kvar=1.0173787262529668 Phases=1 yearly=res_kw_1205_pu

New Load.load_p1ulv5476_1 conn=wye bus1=p1ulv5476.1 kV=0.12 Vminpu=0.8 Vmaxpu=1.2 model=1 kW=3.6844020253442458 kvar=1.4451491397155931 Phases=1 yearly=res_kw_1258_pu

New Load.load_p1ulv5476_2 conn=wye bus1=p1ulv5476.2 kV=0.12 Vminpu=0.8 Vmaxpu=1.2 model=1 kW=3.6844020253442458 kvar=1.4451491397155931 Phases=1 yearly=res_kw_1258_pu

New Load.load_p1ulv5477_1 conn=wye bus1=p1ulv5477.1 kV=0.12 Vminpu=0.8 Vmaxpu=1.2 model=1 kW=5.675346369339635 kvar=1.238985226090579 Phases=1 yearly=res_kw_1186_pu

New Load.load_p1ulv5477_2 conn=wye bus1=p1ulv5477.2 kV=0.12 Vminpu=0.8 Vmaxpu=1.2 model=1 kW=5.675346369339635 kvar=1.238985226090579 Phases=1 yearly=res_kw_1186_pu

New Load.load_p1ulv5478_1 conn=wye bus1=p1ulv5478.1 kV=0.12 Vminpu=0.8 Vmaxpu=1.2 model=1 kW=3.469755020859998 kvar=0.8941520384931253 Phases=1 yearly=res_kw_4_pu

New Load.load_p1ulv5478_2 conn=wye bus1=p1ulv5478.2 kV=0.12 Vminpu=0.8 Vmaxpu=1.2 model=1 kW=3.469755020859998 kvar=0.8941520384931253 Phases=1 yearly=res_kw_4_pu

New Load.load_p1ulv5479_1 conn=wye bus1=p1ulv5479.1 kV=0.12 Vminpu=0.8 Vmaxpu=1.2 model=1 kW=5.723135606665604 kvar=1.5038194991101048 Phases=1 yearly=res_kw_1228_pu

New Load.load_p1ulv5479_2 conn=wye bus1=p1ulv5479.2 kV=0.12 Vminpu=0.8 Vmaxpu=1.2 model=1 kW=5.723135606665604 kvar=1.5038194991101048 Phases=1 yearly=res_kw_1228_pu

New Load.load_p1ulv5480_1 conn=wye bus1=p1ulv5480.1 kV=0.12 Vminpu=0.8 Vmaxpu=1.2 model=1 kW=5.7981206415948625 kvar=1.408328470231474 Phases=1 yearly=res_kw_995_pu

New Load.load_p1ulv5480_2 conn=wye bus1=p1ulv5480.2 kV=0.12 Vminpu=0.8 Vmaxpu=1.2 model=1 kW=5.7981206415948625 kvar=1.408328470231474 Phases=1 yearly=res_kw_995_pu

New Load.load_p1ulv5482_1 conn=wye bus1=p1ulv5482.1 kV=0.12 Vminpu=0.8 Vmaxpu=1.2 model=1 kW=6.727252203449795 kvar=1.9067277455995406 Phases=1 yearly=res_kw_822_pu

New Load.load_p1ulv5482_2 conn=wye bus1=p1ulv5482.2 kV=0.12 Vminpu=0.8 Vmaxpu=1.2 model=1 kW=6.727252203449795 kvar=1.9067277455995406 Phases=1 yearly=res_kw_822_pu

New Load.load_p1ulv5485_1 conn=wye bus1=p1ulv5485.1 kV=0.12 Vminpu=0.8 Vmaxpu=1.2 model=1 kW=2.40000228705824 kvar=1.0173787262529668 Phases=1 yearly=res_kw_1205_pu

New Load.load_p1ulv5485_2 conn=wye bus1=p1ulv5485.2 kV=0.12 Vminpu=0.8 Vmaxpu=1.2 model=1 kW=2.40000228705824 kvar=1.0173787262529668 Phases=1 yearly=res_kw_1205_pu

New Load.load_p1ulv5486 conn=wye bus1=p1ulv5486.1.2.3 kV=0.48 Vminpu=0.8 Vmaxpu=1.2 model=1 kW=37.23408636169173 kvar=8.8243100183342 Phases=3 yearly=com_kw_13576_pu

New Load.load_p1ulv5489_1 conn=wye bus1=p1ulv5489.1 kV=0.12 Vminpu=0.8 Vmaxpu=1.2 model=1 kW=3.8748715750127736 kvar=1.5614372175332516 Phases=1 yearly=res_kw_517_pu

New Load.load_p1ulv5489_2 conn=wye bus1=p1ulv5489.2 kV=0.12 Vminpu=0.8 Vmaxpu=1.2 model=1 kW=3.8748715750127736 kvar=1.5614372175332516 Phases=1 yearly=res_kw_517_pu

New Load.load_p1ulv5490_1 conn=wye bus1=p1ulv5490.1 kV=0.12 Vminpu=0.8 Vmaxpu=1.2 model=1 kW=6.294621884355657 kvar=1.2961288323966025 Phases=1 yearly=res_kw_689_pu

New Load.load_p1ulv5490_2 conn=wye bus1=p1ulv5490.2 kV=0.12 Vminpu=0.8 Vmaxpu=1.2 model=1 kW=6.294621884355657 kvar=1.2961288323966025 Phases=1 yearly=res_kw_689_pu

New Load.load_p1ulv5491_1 conn=wye bus1=p1ulv5491.1 kV=0.12 Vminpu=0.8 Vmaxpu=1.2 model=1 kW=4.066587428282395 kvar=0.7788614811484863 Phases=1 yearly=res_kw_887_pu

New Load.load_p1ulv5491_2 conn=wye bus1=p1ulv5491.2 kV=0.12 Vminpu=0.8 Vmaxpu=1.2 model=1 kW=4.066587428282395 kvar=0.7788614811484863 Phases=1 yearly=res_kw_887_pu

New Load.load_p1ulv5492_1 conn=wye bus1=p1ulv5492.1 kV=0.12 Vminpu=0.8 Vmaxpu=1.2 model=1 kW=5.723135606665604 kvar=1.5038194991101048 Phases=1 yearly=res_kw_1228_pu

New Load.load_p1ulv5492_2 conn=wye bus1=p1ulv5492.2 kV=0.12 Vminpu=0.8 Vmaxpu=1.2 model=1 kW=5.723135606665604 kvar=1.5038194991101048 Phases=1 yearly=res_kw_1228_pu

New Load.load_p1ulv5497_1 conn=wye bus1=p1ulv5497.1 kV=0.12 Vminpu=0.8 Vmaxpu=1.2 model=1 kW=3.6844020253442458 kvar=1.4451491397155931 Phases=1 yearly=res_kw_1258_pu

New Load.load_p1ulv5497_2 conn=wye bus1=p1ulv5497.2 kV=0.12 Vminpu=0.8 Vmaxpu=1.2 model=1 kW=3.6844020253442458 kvar=1.4451491397155931 Phases=1 yearly=res_kw_1258_pu

New Load.load_p1ulv5500_1 conn=wye bus1=p1ulv5500.1 kV=0.12 Vminpu=0.8 Vmaxpu=1.2 model=1 kW=4.8861141847383 kvar=1.2417687859549835 Phases=1 yearly=res_kw_549_pu

New Load.load_p1ulv5500_2 conn=wye bus1=p1ulv5500.2 kV=0.12 Vminpu=0.8 Vmaxpu=1.2 model=1 kW=4.8861141847383 kvar=1.2417687859549835 Phases=1 yearly=res_kw_549_pu

New Load.load_p1ulv5504_1 conn=wye bus1=p1ulv5504.1 kV=0.12 Vminpu=0.8 Vmaxpu=1.2 model=1 kW=13.793674087523804 kvar=0.8506323916315093 Phases=1 yearly=com_kw_14989_pu

New Load.load_p1ulv5504_2 conn=wye bus1=p1ulv5504.2 kV=0.12 Vminpu=0.8 Vmaxpu=1.2 model=1 kW=13.793674087523804 kvar=0.8506323916315093 Phases=1 yearly=com_kw_14989_pu

New Load.load_p1ulv7113_1 conn=wye bus1=p1ulv7113.1 kV=0.12 Vminpu=0.8 Vmaxpu=1.2 model=1 kW=5.657185051194877 kvar=1.2069063012387689 Phases=1 yearly=res_kw_780_pu

New Load.load_p1ulv7113_2 conn=wye bus1=p1ulv7113.2 kV=0.12 Vminpu=0.8 Vmaxpu=1.2 model=1 kW=5.657185051194877 kvar=1.2069063012387689 Phases=1 yearly=res_kw_780_pu

New Load.load_p1ulv7114_1 conn=wye bus1=p1ulv7113.1 kV=0.12 Vminpu=0.8 Vmaxpu=1.2 model=1 kW=2.1376631749204993 kvar=0.6218033466021168 Phases=1 yearly=res_kw_93_pu

New Load.load_p1ulv7114_2 conn=wye bus1=p1ulv7113.2 kV=0.12 Vminpu=0.8 Vmaxpu=1.2 model=1 kW=2.1376631749204993 kvar=0.6218033466021168 Phases=1 yearly=res_kw_93_pu

New Load.load_p1ulv7998_1 conn=wye bus1=p1ulv7998.1 kV=0.12 Vminpu=0.8 Vmaxpu=1.2 model=1 kW=6.251204132654125 kvar=1.5952530188558731 Phases=1 yearly=res_kw_1248_pu

New Load.load_p1ulv7998_2 conn=wye bus1=p1ulv7998.2 kV=0.12 Vminpu=0.8 Vmaxpu=1.2 model=1 kW=6.251204132654125 kvar=1.5952530188558731 Phases=1 yearly=res_kw_1248_pu

New Load.load_p1ulv7999 conn=wye bus1=p1ulv7999.1.2.3 kV=0.48 Vminpu=0.8 Vmaxpu=1.2 model=1 kW=99.72137170496892 kvar=14.963738714350326 Phases=3 yearly=res_kw_1009_pu

New Load.load_p1ulv8000 conn=wye bus1=p1ulv8000.1.2.3 kV=0.48 Vminpu=0.8 Vmaxpu=1.2 model=1 kW=35.86901252509879 kvar=3.5433338061279938 Phases=3 yearly=res_kw_686_pu

New Load.load_p1ulv8001 conn=wye bus1=p1ulv8001.1.2.3 kV=0.48 Vminpu=0.8 Vmaxpu=1.2 model=1 kW=51.043034760958136 kvar=6.574105062207713 Phases=3 yearly=res_kw_606_pu

New Load.load_p1ulv8036_1 conn=wye bus1=p1ulv8036.1 kV=0.12 Vminpu=0.8 Vmaxpu=1.2 model=1 kW=11.457721527492426 kvar=1.3801854390555242 Phases=1 yearly=res_kw_861_pu

New Load.load_p1ulv8036_2 conn=wye bus1=p1ulv8036.2 kV=0.12 Vminpu=0.8 Vmaxpu=1.2 model=1 kW=11.457721527492426 kvar=1.3801854390555242 Phases=1 yearly=res_kw_861_pu

New Load.load_p1ulv8037_1 conn=wye bus1=p1ulv8037.1 kV=0.12 Vminpu=0.8 Vmaxpu=1.2 model=1 kW=5.991917116566147 kvar=1.6692124001399427 Phases=1 yearly=res_kw_314_pu

New Load.load_p1ulv8037_2 conn=wye bus1=p1ulv8037.2 kV=0.12 Vminpu=0.8 Vmaxpu=1.2 model=1 kW=5.991917116566147 kvar=1.6692124001399427 Phases=1 yearly=res_kw_314_pu

New Load.load_p1ulv8038_1 conn=wye bus1=p1ulv8038.1 kV=0.12 Vminpu=0.8 Vmaxpu=1.2 model=1 kW=4.78815623948431 kvar=1.2110296754961107 Phases=1 yearly=res_kw_842_pu

New Load.load_p1ulv8038_2 conn=wye bus1=p1ulv8038.2 kV=0.12 Vminpu=0.8 Vmaxpu=1.2 model=1 kW=4.78815623948431 kvar=1.2110296754961107 Phases=1 yearly=res_kw_842_pu

New Load.load_p1ulv8039 conn=wye bus1=p1ulv8039.1.2.3 kV=0.48 Vminpu=0.8 Vmaxpu=1.2 model=1 kW=29.216098767543677 kvar=1.0180427191443921 Phases=3 yearly=res_kw_979_pu

New Load.load_p1ulv8040_1 conn=wye bus1=p1ulv8040.1 kV=0.12 Vminpu=0.8 Vmaxpu=1.2 model=1 kW=11.506702661284509 kvar=3.22329926547824 Phases=1 yearly=res_kw_231_pu

New Load.load_p1ulv8040_2 conn=wye bus1=p1ulv8040.2 kV=0.12 Vminpu=0.8 Vmaxpu=1.2 model=1 kW=11.506702661284509 kvar=3.22329926547824 Phases=1 yearly=res_kw_231_pu

New Load.load_p1ulv8041 conn=wye bus1=p1ulv8041.1.2.3 kV=0.48 Vminpu=0.8 Vmaxpu=1.2 model=1 kW=19.034983396106526 kvar=2.891380693812425 Phases=3 yearly=res_kw_1231_pu

New Load.load_p1ulv8042 conn=wye bus1=p1ulv8042.1.2.3 kV=0.48 Vminpu=0.8 Vmaxpu=1.2 model=1 kW=62.06802441981972 kvar=17.21001314056617 Phases=3 yearly=res_kw_538_pu

New Load.load_p1ulv8043_1 conn=wye bus1=p1ulv8043.1 kV=0.12 Vminpu=0.8 Vmaxpu=1.2 model=1 kW=3.6844020253442458 kvar=1.4451491397155931 Phases=1 yearly=res_kw_1258_pu

New Load.load_p1ulv8043_2 conn=wye bus1=p1ulv8043.2 kV=0.12 Vminpu=0.8 Vmaxpu=1.2 model=1 kW=3.6844020253442458 kvar=1.4451491397155931 Phases=1 yearly=res_kw_1258_pu

New Load.load_p1ulv8048_1 conn=wye bus1=p1ulv8048.1 kV=0.12 Vminpu=0.8 Vmaxpu=1.2 model=1 kW=4.16464238338737 kvar=0.9759614008792458 Phases=1 yearly=res_kw_968_pu

New Load.load_p1ulv8048_2 conn=wye bus1=p1ulv8048.2 kV=0.12 Vminpu=0.8 Vmaxpu=1.2 model=1 kW=4.16464238338737 kvar=0.9759614008792458 Phases=1 yearly=res_kw_968_pu

New Load.load_p1ulv8049_1 conn=wye bus1=p1ulv8049.1 kV=0.12 Vminpu=0.8 Vmaxpu=1.2 model=1 kW=6.4896365820991955 kvar=1.543503848965248 Phases=1 yearly=res_kw_206_pu

New Load.load_p1ulv8049_2 conn=wye bus1=p1ulv8049.2 kV=0.12 Vminpu=0.8 Vmaxpu=1.2 model=1 kW=6.4896365820991955 kvar=1.543503848965248 Phases=1 yearly=res_kw_206_pu

New Load.load_p1ulv8060_1 conn=wye bus1=p1ulv8060.1 kV=0.12 Vminpu=0.8 Vmaxpu=1.2 model=1 kW=3.0349278195989244 kvar=0.5508172290988972 Phases=1 yearly=res_kw_1112_pu

New Load.load_p1ulv8060_2 conn=wye bus1=p1ulv8060.2 kV=0.12 Vminpu=0.8 Vmaxpu=1.2 model=1 kW=3.0349278195989244 kvar=0.5508172290988972 Phases=1 yearly=res_kw_1112_pu

New Load.load_p1ulv8061_1 conn=wye bus1=p1ulv8061.1 kV=0.12 Vminpu=0.8 Vmaxpu=1.2 model=1 kW=2.9178485115923896 kvar=1.0715119122844614 Phases=1 yearly=res_kw_1149_pu

New Load.load_p1ulv8061_2 conn=wye bus1=p1ulv8061.2 kV=0.12 Vminpu=0.8 Vmaxpu=1.2 model=1 kW=2.9178485115923896 kvar=1.0715119122844614 Phases=1 yearly=res_kw_1149_pu

New Load.load_p1ulv8063 conn=wye bus1=p1ulv8063.1.2.3 kV=0.48 Vminpu=0.8 Vmaxpu=1.2 model=1 kW=448.8884029744792 kvar=99.40637589619847 Phases=3 yearly=res_kw_1180_pu

New Load.load_p1ulv8064_1 conn=wye bus1=p1ulv8064.1 kV=0.12 Vminpu=0.8 Vmaxpu=1.2 model=1 kW=7.04256695844029 kvar=1.659740351203588 Phases=1 yearly=res_kw_707_pu

New Load.load_p1ulv8064_2 conn=wye bus1=p1ulv8064.2 kV=0.12 Vminpu=0.8 Vmaxpu=1.2 model=1 kW=7.04256695844029 kvar=1.659740351203588 Phases=1 yearly=res_kw_707_pu

New Load.load_p1ulv8065_1 conn=wye bus1=p1ulv8065.1 kV=0.12 Vminpu=0.8 Vmaxpu=1.2 model=1 kW=2.9898249364160714 kvar=0.2983164502279761 Phases=1 yearly=res_kw_1070_pu

New Load.load_p1ulv8065_2 conn=wye bus1=p1ulv8065.2 kV=0.12 Vminpu=0.8 Vmaxpu=1.2 model=1 kW=2.9898249364160714 kvar=0.2983164502279761 Phases=1 yearly=res_kw_1070_pu

New Load.load_p1ulv8066_1 conn=wye bus1=p1ulv8066.1 kV=0.12 Vminpu=0.8 Vmaxpu=1.2 model=1 kW=3.8029744718879392 kvar=1.1462670306842289 Phases=1 yearly=res_kw_263_pu

New Load.load_p1ulv8066_2 conn=wye bus1=p1ulv8066.2 kV=0.12 Vminpu=0.8 Vmaxpu=1.2 model=1 kW=3.8029744718879392 kvar=1.1462670306842289 Phases=1 yearly=res_kw_263_pu

New Load.load_p1ulv8067_1 conn=wye bus1=p1ulv8067.1 kV=0.12 Vminpu=0.8 Vmaxpu=1.2 model=1 kW=6.224817813202313 kvar=1.7553010009693135 Phases=1 yearly=res_kw_710_pu

New Load.load_p1ulv8067_2 conn=wye bus1=p1ulv8067.2 kV=0.12 Vminpu=0.8 Vmaxpu=1.2 model=1 kW=6.224817813202313 kvar=1.7553010009693135 Phases=1 yearly=res_kw_710_pu

New Load.load_p1ulv8068_1 conn=wye bus1=p1ulv8068.1 kV=0.12 Vminpu=0.8 Vmaxpu=1.2 model=1 kW=4.666080754031652 kvar=0.9704814918535188 Phases=1 yearly=res_kw_280_pu

New Load.load_p1ulv8068_2 conn=wye bus1=p1ulv8068.2 kV=0.12 Vminpu=0.8 Vmaxpu=1.2 model=1 kW=4.666080754031652 kvar=0.9704814918535188 Phases=1 yearly=res_kw_280_pu

New Load.load_p1ulv8654_1 conn=wye bus1=p1ulv8654.1 kV=0.12 Vminpu=0.8 Vmaxpu=1.2 model=1 kW=5.991917116566147 kvar=1.6692124001399427 Phases=1 yearly=res_kw_314_pu

New Load.load_p1ulv8654_2 conn=wye bus1=p1ulv8654.2 kV=0.12 Vminpu=0.8 Vmaxpu=1.2 model=1 kW=5.991917116566147 kvar=1.6692124001399427 Phases=1 yearly=res_kw_314_pu

New Load.load_p1ulv8656_1 conn=wye bus1=p1ulv8656.1 kV=0.12 Vminpu=0.8 Vmaxpu=1.2 model=1 kW=3.629714039262861 kvar=1.2034402112399032 Phases=1 yearly=res_kw_203_pu

New Load.load_p1ulv8656_2 conn=wye bus1=p1ulv8656.2 kV=0.12 Vminpu=0.8 Vmaxpu=1.2 model=1 kW=3.629714039262861 kvar=1.2034402112399032 Phases=1 yearly=res_kw_203_pu

New Load.load_p1ulv8659_1 conn=wye bus1=p1ulv8659.1 kV=0.12 Vminpu=0.8 Vmaxpu=1.2 model=1 kW=2.40000228705824 kvar=1.0173787262529668 Phases=1 yearly=res_kw_1205_pu

New Load.load_p1ulv8659_2 conn=wye bus1=p1ulv8659.2 kV=0.12 Vminpu=0.8 Vmaxpu=1.2 model=1 kW=2.40000228705824 kvar=1.0173787262529668 Phases=1 yearly=res_kw_1205_pu

New Load.load_p1ulv8660_1 conn=wye bus1=p1ulv8660.1 kV=0.12 Vminpu=0.8 Vmaxpu=1.2 model=1 kW=4.47171304939181 kvar=1.1676103385976955 Phases=1 yearly=res_kw_627_pu

New Load.load_p1ulv8660_2 conn=wye bus1=p1ulv8660.2 kV=0.12 Vminpu=0.8 Vmaxpu=1.2 model=1 kW=4.47171304939181 kvar=1.1676103385976955 Phases=1 yearly=res_kw_627_pu

New Load.load_p1ulv8661_1 conn=wye bus1=p1ulv8661.1 kV=0.12 Vminpu=0.8 Vmaxpu=1.2 model=1 kW=3.8029744718879392 kvar=1.1462670306842289 Phases=1 yearly=res_kw_263_pu

New Load.load_p1ulv8661_2 conn=wye bus1=p1ulv8661.2 kV=0.12 Vminpu=0.8 Vmaxpu=1.2 model=1 kW=3.8029744718879392 kvar=1.1462670306842289 Phases=1 yearly=res_kw_263_pu

New Load.load_p1ulv8662_1 conn=wye bus1=p1ulv8662.1 kV=0.12 Vminpu=0.8 Vmaxpu=1.2 model=1 kW=10.375628907780863 kvar=4.616486224330442 Phases=1 yearly=res_kw_1267_pu

New Load.load_p1ulv8662_2 conn=wye bus1=p1ulv8662.2 kV=0.12 Vminpu=0.8 Vmaxpu=1.2 model=1 kW=10.375628907780863 kvar=4.616486224330442 Phases=1 yearly=res_kw_1267_pu

New Load.load_p1ulv8663_1 conn=wye bus1=p1ulv8663.1 kV=0.12 Vminpu=0.8 Vmaxpu=1.2 model=1 kW=4.80777430622987 kvar=1.4183053271274066 Phases=1 yearly=res_kw_1023_pu

New Load.load_p1ulv8663_2 conn=wye bus1=p1ulv8663.2 kV=0.12 Vminpu=0.8 Vmaxpu=1.2 model=1 kW=4.80777430622987 kvar=1.4183053271274066 Phases=1 yearly=res_kw_1023_pu

New Load.load_p1ulv8664_1 conn=wye bus1=p1ulv8664.1 kV=0.12 Vminpu=0.8 Vmaxpu=1.2 model=1 kW=7.7578735794910925 kvar=1.9049941012910125 Phases=1 yearly=res_kw_863_pu

New Load.load_p1ulv8664_2 conn=wye bus1=p1ulv8664.2 kV=0.12 Vminpu=0.8 Vmaxpu=1.2 model=1 kW=7.7578735794910925 kvar=1.9049941012910125 Phases=1 yearly=res_kw_863_pu

New Load.load_p1ulv8665_1 conn=wye bus1=p1ulv8665.1 kV=0.12 Vminpu=0.8 Vmaxpu=1.2 model=1 kW=4.658663502989286 kvar=1.3388389434895354 Phases=1 yearly=res_kw_182_pu

New Load.load_p1ulv8665_2 conn=wye bus1=p1ulv8665.2 kV=0.12 Vminpu=0.8 Vmaxpu=1.2 model=1 kW=4.658663502989286 kvar=1.3388389434895354 Phases=1 yearly=res_kw_182_pu

New Load.load_p1ulv9767_1 conn=wye bus1=p1ulv9767.1 kV=0.12 Vminpu=0.8 Vmaxpu=1.2 model=1 kW=6.121843752393233 kvar=1.8222876779408097 Phases=1 yearly=res_kw_1153_pu

New Load.load_p1ulv9767_2 conn=wye bus1=p1ulv9767.2 kV=0.12 Vminpu=0.8 Vmaxpu=1.2 model=1 kW=6.121843752393233 kvar=1.8222876779408097 Phases=1 yearly=res_kw_1153_pu

New Load.load_p1ulv9768_1 conn=wye bus1=p1ulv9768.1 kV=0.12 Vminpu=0.8 Vmaxpu=1.2 model=1 kW=4.725263221485363 kvar=1.0173757011563145 Phases=1 yearly=res_kw_752_pu

New Load.load_p1ulv9768_2 conn=wye bus1=p1ulv9768.2 kV=0.12 Vminpu=0.8 Vmaxpu=1.2 model=1 kW=4.725263221485363 kvar=1.0173757011563145 Phases=1 yearly=res_kw_752_pu

New Load.load_p1ulv9774_1 conn=wye bus1=p1ulv9774.1 kV=0.12 Vminpu=0.8 Vmaxpu=1.2 model=1 kW=3.963001053413761 kvar=0.9410786890170905 Phases=1 yearly=res_kw_1256_pu

New Load.load_p1ulv9774_2 conn=wye bus1=p1ulv9774.2 kV=0.12 Vminpu=0.8 Vmaxpu=1.2 model=1 kW=3.963001053413761 kvar=0.9410786890170905 Phases=1 yearly=res_kw_1256_pu

New Load.load_p1ulv9996_1 conn=wye bus1=p1ulv9996.1 kV=0.12 Vminpu=0.8 Vmaxpu=1.2 model=1 kW=3.963001053413761 kvar=0.9410786890170905 Phases=1 yearly=res_kw_1256_pu

New Load.load_p1ulv9996_2 conn=wye bus1=p1ulv9996.2 kV=0.12 Vminpu=0.8 Vmaxpu=1.2 model=1 kW=3.963001053413761 kvar=0.9410786890170905 Phases=1 yearly=res_kw_1256_pu

New Load.load_p1ulv10156_1 conn=wye bus1=p1ulv10156.1 kV=0.12 Vminpu=0.8 Vmaxpu=1.2 model=1 kW=6.168408370727534 kvar=1.492740670010399 Phases=1 yearly=res_kw_1162_pu

New Load.load_p1ulv10156_2 conn=wye bus1=p1ulv10156.2 kV=0.12 Vminpu=0.8 Vmaxpu=1.2 model=1 kW=6.168408370727534 kvar=1.492740670010399 Phases=1 yearly=res_kw_1162_pu

New Load.load_p1ulv10157_1 conn=wye bus1=p1ulv10157.1 kV=0.12 Vminpu=0.8 Vmaxpu=1.2 model=1 kW=4.658663502989286 kvar=1.3388389434895354 Phases=1 yearly=res_kw_182_pu

New Load.load_p1ulv10157_2 conn=wye bus1=p1ulv10157.2 kV=0.12 Vminpu=0.8 Vmaxpu=1.2 model=1 kW=4.658663502989286 kvar=1.3388389434895354 Phases=1 yearly=res_kw_182_pu

New Load.load_p1ulv10158_1 conn=wye bus1=p1ulv10158.1 kV=0.12 Vminpu=0.8 Vmaxpu=1.2 model=1 kW=9.341738473663403 kvar=2.018548151169967 Phases=1 yearly=res_kw_504_pu

New Load.load_p1ulv10158_2 conn=wye bus1=p1ulv10158.2 kV=0.12 Vminpu=0.8 Vmaxpu=1.2 model=1 kW=9.341738473663403 kvar=2.018548151169967 Phases=1 yearly=res_kw_504_pu

New Load.load_p1ulv10159_1 conn=wye bus1=p1ulv10158.1 kV=0.12 Vminpu=0.8 Vmaxpu=1.2 model=1 kW=3.469521951913567 kvar=0.9490620687569232 Phases=1 yearly=res_kw_825_pu

New Load.load_p1ulv10159_2 conn=wye bus1=p1ulv10158.2 kV=0.12 Vminpu=0.8 Vmaxpu=1.2 model=1 kW=3.469521951913567 kvar=0.9490620687569232 Phases=1 yearly=res_kw_825_pu

New Load.load_p1ulv10160_1 conn=wye bus1=p1ulv10160.1 kV=0.12 Vminpu=0.8 Vmaxpu=1.2 model=1 kW=3.9060227283575606 kvar=0.8578020352767629 Phases=1 yearly=res_kw_278_pu

New Load.load_p1ulv10160_2 conn=wye bus1=p1ulv10160.2 kV=0.12 Vminpu=0.8 Vmaxpu=1.2 model=1 kW=3.9060227283575606 kvar=0.8578020352767629 Phases=1 yearly=res_kw_278_pu

New Load.load_p1ulv10161_1 conn=wye bus1=p1ulv10161.1 kV=0.12 Vminpu=0.8 Vmaxpu=1.2 model=1 kW=3.789884331965197 kvar=1.0036576715582408 Phases=1 yearly=res_kw_670_pu

New Load.load_p1ulv10161_2 conn=wye bus1=p1ulv10161.2 kV=0.12 Vminpu=0.8 Vmaxpu=1.2 model=1 kW=3.789884331965197 kvar=1.0036576715582408 Phases=1 yearly=res_kw_670_pu

New Load.load_p1ulv10162_1 conn=wye bus1=p1ulv10161.1 kV=0.12 Vminpu=0.8 Vmaxpu=1.2 model=1 kW=3.789884331965197 kvar=1.0036576715582408 Phases=1 yearly=res_kw_670_pu

New Load.load_p1ulv10162_2 conn=wye bus1=p1ulv10161.2 kV=0.12 Vminpu=0.8 Vmaxpu=1.2 model=1 kW=3.789884331965197 kvar=1.0036576715582408 Phases=1 yearly=res_kw_670_pu

New Load.load_p1ulv10163_1 conn=wye bus1=p1ulv10163.1 kV=0.12 Vminpu=0.8 Vmaxpu=1.2 model=1 kW=3.8029744718879392 kvar=1.1462670306842289 Phases=1 yearly=res_kw_263_pu

New Load.load_p1ulv10163_2 conn=wye bus1=p1ulv10163.2 kV=0.12 Vminpu=0.8 Vmaxpu=1.2 model=1 kW=3.8029744718879392 kvar=1.1462670306842289 Phases=1 yearly=res_kw_263_pu

New Load.load_p1ulv10164_1 conn=wye bus1=p1ulv10164.1 kV=0.12 Vminpu=0.8 Vmaxpu=1.2 model=1 kW=4.78815623948431 kvar=1.2110296754961107 Phases=1 yearly=res_kw_842_pu

New Load.load_p1ulv10164_2 conn=wye bus1=p1ulv10164.2 kV=0.12 Vminpu=0.8 Vmaxpu=1.2 model=1 kW=4.78815623948431 kvar=1.2110296754961107 Phases=1 yearly=res_kw_842_pu

New Load.load_p1ulv10165_1 conn=wye bus1=p1ulv10165.1 kV=0.12 Vminpu=0.8 Vmaxpu=1.2 model=1 kW=3.6844020253442458 kvar=1.4451491397155931 Phases=1 yearly=res_kw_1258_pu

New Load.load_p1ulv10165_2 conn=wye bus1=p1ulv10165.2 kV=0.12 Vminpu=0.8 Vmaxpu=1.2 model=1 kW=3.6844020253442458 kvar=1.4451491397155931 Phases=1 yearly=res_kw_1258_pu

New Load.load_p1ulv10166_1 conn=wye bus1=p1ulv10166.1 kV=0.12 Vminpu=0.8 Vmaxpu=1.2 model=1 kW=11.457721527492426 kvar=1.3801854390555242 Phases=1 yearly=res_kw_861_pu

New Load.load_p1ulv10166_2 conn=wye bus1=p1ulv10166.2 kV=0.12 Vminpu=0.8 Vmaxpu=1.2 model=1 kW=11.457721527492426 kvar=1.3801854390555242 Phases=1 yearly=res_kw_861_pu

New Load.load_p1ulv10167_1 conn=wye bus1=p1ulv10167.1 kV=0.12 Vminpu=0.8 Vmaxpu=1.2 model=1 kW=2.6241521841182514 kvar=0.8429304779950015 Phases=1 yearly=res_kw_33_pu

New Load.load_p1ulv10167_2 conn=wye bus1=p1ulv10167.2 kV=0.12 Vminpu=0.8 Vmaxpu=1.2 model=1 kW=2.6241521841182514 kvar=0.8429304779950015 Phases=1 yearly=res_kw_33_pu

New Load.load_p1ulv10168_1 conn=wye bus1=p1ulv10167.1 kV=0.12 Vminpu=0.8 Vmaxpu=1.2 model=1 kW=3.8029744718879392 kvar=1.1462670306842289 Phases=1 yearly=res_kw_263_pu

New Load.load_p1ulv10168_2 conn=wye bus1=p1ulv10167.2 kV=0.12 Vminpu=0.8 Vmaxpu=1.2 model=1 kW=3.8029744718879392 kvar=1.1462670306842289 Phases=1 yearly=res_kw_263_pu

New Load.load_p1ulv10169_1 conn=wye bus1=p1ulv10169.1 kV=0.12 Vminpu=0.8 Vmaxpu=1.2 model=1 kW=3.469521951913567 kvar=0.9490620687569232 Phases=1 yearly=res_kw_825_pu

New Load.load_p1ulv10169_2 conn=wye bus1=p1ulv10169.2 kV=0.12 Vminpu=0.8 Vmaxpu=1.2 model=1 kW=3.469521951913567 kvar=0.9490620687569232 Phases=1 yearly=res_kw_825_pu

New Load.load_p1ulv10170_1 conn=wye bus1=p1ulv10169.1 kV=0.12 Vminpu=0.8 Vmaxpu=1.2 model=1 kW=2.6241521841182514 kvar=0.8429304779950015 Phases=1 yearly=res_kw_33_pu

New Load.load_p1ulv10170_2 conn=wye bus1=p1ulv10169.2 kV=0.12 Vminpu=0.8 Vmaxpu=1.2 model=1 kW=2.6241521841182514 kvar=0.8429304779950015 Phases=1 yearly=res_kw_33_pu

New Load.load_p1ulv10171_1 conn=wye bus1=p1ulv10171.1 kV=0.12 Vminpu=0.8 Vmaxpu=1.2 model=1 kW=4.78815623948431 kvar=1.2110296754961107 Phases=1 yearly=res_kw_842_pu

New Load.load_p1ulv10171_2 conn=wye bus1=p1ulv10171.2 kV=0.12 Vminpu=0.8 Vmaxpu=1.2 model=1 kW=4.78815623948431 kvar=1.2110296754961107 Phases=1 yearly=res_kw_842_pu

New Load.load_p1ulv10172_1 conn=wye bus1=p1ulv10172.1 kV=0.12 Vminpu=0.8 Vmaxpu=1.2 model=1 kW=3.469521951913567 kvar=0.9490620687569232 Phases=1 yearly=res_kw_825_pu

New Load.load_p1ulv10172_2 conn=wye bus1=p1ulv10172.2 kV=0.12 Vminpu=0.8 Vmaxpu=1.2 model=1 kW=3.469521951913567 kvar=0.9490620687569232 Phases=1 yearly=res_kw_825_pu

New Load.load_p1ulv10173_1 conn=wye bus1=p1ulv10173.1 kV=0.12 Vminpu=0.8 Vmaxpu=1.2 model=1 kW=2.4402285312138985 kvar=0.9342273883677934 Phases=1 yearly=res_kw_409_pu

New Load.load_p1ulv10173_2 conn=wye bus1=p1ulv10173.2 kV=0.12 Vminpu=0.8 Vmaxpu=1.2 model=1 kW=2.4402285312138985 kvar=0.9342273883677934 Phases=1 yearly=res_kw_409_pu

New Load.load_p1ulv10174_1 conn=wye bus1=p1ulv10173.1 kV=0.12 Vminpu=0.8 Vmaxpu=1.2 model=1 kW=2.6241521841182514 kvar=0.8429304779950015 Phases=1 yearly=res_kw_33_pu

New Load.load_p1ulv10174_2 conn=wye bus1=p1ulv10173.2 kV=0.12 Vminpu=0.8 Vmaxpu=1.2 model=1 kW=2.6241521841182514 kvar=0.8429304779950015 Phases=1 yearly=res_kw_33_pu

New Load.load_p1ulv10175_1 conn=wye bus1=p1ulv10175.1 kV=0.12 Vminpu=0.8 Vmaxpu=1.2 model=1 kW=3.789884331965197 kvar=1.0036576715582408 Phases=1 yearly=res_kw_670_pu

New Load.load_p1ulv10175_2 conn=wye bus1=p1ulv10175.2 kV=0.12 Vminpu=0.8 Vmaxpu=1.2 model=1 kW=3.789884331965197 kvar=1.0036576715582408 Phases=1 yearly=res_kw_670_pu

New Load.load_p1ulv10176_1 conn=wye bus1=p1ulv10176.1 kV=0.12 Vminpu=0.8 Vmaxpu=1.2 model=1 kW=4.78815623948431 kvar=1.2110296754961107 Phases=1 yearly=res_kw_842_pu
